McPAT (version 1.0 of Aug, 2013) is computing the target processor...
 

McPAT (version 1.0 of Aug, 2013) results  (current print level is 5)
*****************************************************************************************
  Technology 45 nm
  Using Long Channel Devices When Appropriate
  Interconnect metal projection= aggressive interconnect technology projection
  Core clock Rate(MHz) 2660

*****************************************************************************************
Processor: 
  Area = 498.186 mm^2
  Peak Power = 128.745 W
  Total Leakage = 62.7176 W
  Peak Dynamic = 66.0269 W
  Subthreshold Leakage = 59.201 W
  Subthreshold Leakage with power gating = 26.7652 W
  Gate Leakage = 3.51668 W
  Runtime Dynamic = 5.64237 W

  Total Cores: 12 cores 
  Device Type= ITRS high performance device type
    Area = 308.266 mm^2
    Peak Dynamic = 64.6949 W
    Subthreshold Leakage = 38.681 W
    Subthreshold Leakage with power gating = 16.3703 W
    Gate Leakage = 3.36018 W
    Runtime Dynamic = 4.92118 W

  Total L3s: 
  Device Type= ITRS high performance device type
    Area = 185.723 mm^2
    Peak Dynamic = 1.33199 W
    Subthreshold Leakage = 20.4026 W
    Subthreshold Leakage with power gating = 9.97092 W
    Gate Leakage = 0.145241 W
    Runtime Dynamic = 0.721192 W

  Total NoCs (Network/Bus): 
  Device Type= ITRS high performance device type
    Area = 4.19738 mm^2
    Peak Dynamic = 0 W
    Subthreshold Leakage = 0.117422 W
    Subthreshold Leakage with power gating = 0.0440332 W
    Gate Leakage = 0.0112604 W
    Runtime Dynamic = 0 W

*****************************************************************************************
Core:
      Area = 25.6888 mm^2
      Peak Dynamic = 5.39202 W
      Subthreshold Leakage = 3.22341 W
      Subthreshold Leakage with power gating = 1.36419 W
      Gate Leakage = 0.280015 W
      Runtime Dynamic = 0.412612 W

      Instruction Fetch Unit:
        Area = 5.98523 mm^2
        Peak Dynamic = 3.01012 W
        Subthreshold Leakage = 0.703301 W
        Subthreshold Leakage with power gating = 0.305608 W
        Gate Leakage = 0.0682541 W
        Runtime Dynamic = 0.123034 W

          Instruction Cache:
            Area = 3.14635 mm^2
            Peak Dynamic = 0.667364 W
            Subthreshold Leakage = 0.261248 W
            Subthreshold Leakage with power gating = 0.1284 W
            Gate Leakage = 0.029931 W
            Runtime Dynamic = 0.0715083 W

          Branch Target Buffer:
            Area = 0.64954 mm^2
            Peak Dynamic = 0.177867 W
            Subthreshold Leakage = 0.057776 W
            Subthreshold Leakage with power gating = 0.030989 W
            Gate Leakage = 0.00272758 W
            Runtime Dynamic = 0.00402471 W

          Branch Predictor:
            Area = 0.138516 mm^2
            Peak Dynamic = 0.0597838 W
            Subthreshold Leakage = 0.014215 W
            Subthreshold Leakage with power gating = 0.0073517 W
            Gate Leakage = 0.000757657 W
            Runtime Dynamic = 0.00137467 W

              Global Predictor:
                Area = 0.0435221 mm^2
                Peak Dynamic = 0.0168831 W
                Subthreshold Leakage = 0.00540773 W
                Subthreshold Leakage with power gating = 0.00279284 W
                Gate Leakage = 0.000278362 W
                Runtime Dynamic = 0.000423825 W

              Local Predictor:
              L1_Local Predictor:
                Area = 0.0257064 mm^2
                Peak Dynamic = 0.0142575 W
                Subthreshold Leakage = 0.00273579 W
                Subthreshold Leakage with power gating = 0.00141387 W
                Gate Leakage = 0.000154548 W
                Runtime Dynamic = 0.00037024 W

              L2_Local Predictor:
                Area = 0.0151917 mm^2
                Peak Dynamic = 0.00527447 W
                Subthreshold Leakage = 0.00129084 W
                Subthreshold Leakage with power gating = 0.000681231 W
                Gate Leakage = 8.00196e-05 W
                Runtime Dynamic = 0.000143921 W

              Chooser:
                Area = 0.0435221 mm^2
                Peak Dynamic = 0.0168831 W
                Subthreshold Leakage = 0.00540773 W
                Subthreshold Leakage with power gating = 0.00279284 W
                Gate Leakage = 0.000278362 W
                Runtime Dynamic = 0.000423825 W

              RAS:
                Area = 0.0105732 mm^2
                Peak Dynamic = 0.0117602 W
                Subthreshold Leakage = 0.000663763 W
                Subthreshold Leakage with power gating = 0.000352154 W
                Gate Leakage = 4.63858e-05 W
                Runtime Dynamic = 0.000156775 W

          Instruction Buffer:
            Area = 0.0226323 mm^2
            Peak Dynamic = 0.606827 W
            Subthreshold Leakage = 0.00108112 W
            Subthreshold Leakage with power gating = 0.000499461 W
            Gate Leakage = 6.83558e-05 W
            Runtime Dynamic = 0.0104917 W

          Instruction Decoder:
            Area = 1.85799 mm^2
            Peak Dynamic = 1.37404 W
            Subthreshold Leakage = 0.31529 W
            Subthreshold Leakage with power gating = 0.118234 W
            Gate Leakage = 0.0222493 W
            Runtime Dynamic = 0.0356346 W

      Load Store Unit:
        Area = 8.05439 mm^2
        Peak Dynamic = 1.56319 W
        Subthreshold Leakage = 0.453895 W
        Subthreshold Leakage with power gating = 0.212713 W
        Gate Leakage = 0.0437459 W
        Runtime Dynamic = 0.182742 W

          Data Cache:
            Area = 6.84535 mm^2
            Peak Dynamic = 1.501 W
            Subthreshold Leakage = 0.375602 W
            Subthreshold Leakage with power gating = 0.178556 W
            Gate Leakage = 0.0279261 W
            Runtime Dynamic = 0.14064 W

          Load/Store Queue:
            Area = 0.322079 mm^2
            Peak Dynamic = 0.0210512 W
            Subthreshold Leakage = 0.0246015 W
            Subthreshold Leakage with power gating = 0.0140229 W
            Gate Leakage = 0.00329971 W
            Runtime Dynamic = 0.042102 W

      Memory Management Unit:
        Area = 0.559739 mm^2
        Peak Dynamic = 0.66834 W
        Subthreshold Leakage = 0.0942255 W
        Subthreshold Leakage with power gating = 0.0432387 W
        Gate Leakage = 0.0173421 W
        Runtime Dynamic = 0.0132819 W

          Itlb:
            Area = 0.301552 mm^2
            Peak Dynamic = 0.0414942 W
            Subthreshold Leakage = 0.0294516 W
            Subthreshold Leakage with power gating = 0.0167874 W
            Gate Leakage = 0.00393464 W
            Runtime Dynamic = 0.00526067 W

          Dtlb:
            Area = 0.0879726 mm^2
            Peak Dynamic = 0.00747112 W
            Subthreshold Leakage = 0.0110828 W
            Subthreshold Leakage with power gating = 0.00631717 W
            Gate Leakage = 0.00088729 W
            Runtime Dynamic = 0.00802125 W

      Execution Unit:
        Area = 6.14103 mm^2
        Peak Dynamic = 0.0846556 W
        Subthreshold Leakage = 1.25199 W
        Subthreshold Leakage with power gating = 0.469807 W
        Gate Leakage = 0.12351 W
        Runtime Dynamic = 0.0829507 W

          Register Files:
            Area = 0.570804 mm^2
            Peak Dynamic = 0.010671 W
            Subthreshold Leakage = 0.00721681 W
            Subthreshold Leakage with power gating = 0.00301552 W
            Gate Leakage = 0.000622708 W
            Runtime Dynamic = 0.0123895 W

              Integer RF:
                Area = 0.362673 mm^2
                Peak Dynamic = 0.010671 W
                Subthreshold Leakage = 0.00437174 W
                Subthreshold Leakage with power gating = 0.00175585 W
                Gate Leakage = 0.00038992 W
                Runtime Dynamic = 0.0109138 W

              Floating Point RF:
                Area = 0.208131 mm^2
                Peak Dynamic = 0 W
                Subthreshold Leakage = 0.00284507 W
                Subthreshold Leakage with power gating = 0.00125967 W
                Gate Leakage = 0.000232788 W
                Runtime Dynamic = 0.00147567 W

          Instruction Scheduler:
            Area = 0 mm^2
            Peak Dynamic = 0 W
            Subthreshold Leakage = 0 W
            Subthreshold Leakage with power gating = -nan W
            Gate Leakage = 0 W
            Runtime Dynamic = 0 W

          Integer ALUs (Count: 6 ):
            Area = 0.47087 mm^2
            Peak Dynamic = 0.0384854 W
            Subthreshold Leakage = 0.286303 W
            Subthreshold Leakage with power gating = 0.107364 W
            Gate Leakage = 0.0265291 W
            Runtime Dynamic = 0.0327704 W

          Floating Point Units (FPUs) (Count: 2 ):
            Area = 4.6585 mm^2
            Peak Dynamic = 0 W
            Subthreshold Leakage = 0.708126 W
            Subthreshold Leakage with power gating = 0.265547 W
            Gate Leakage = 0.0656156 W
            Runtime Dynamic = 0 W

          Complex ALUs (Mul/Div) (Count: 1 ):
            Area = 0.235435 mm^2
            Peak Dynamic = 0 W
            Subthreshold Leakage = 0.143151 W
            Subthreshold Leakage with power gating = 0.0536818 W
            Gate Leakage = 0.0132646 W
            Runtime Dynamic = 0 W

          Results Broadcast Bus:
            Area Overhead = 0.0352036 mm^2
            Peak Dynamic = 0.0147938 W
            Subthreshold Leakage = 0.0535057 W
            Subthreshold Leakage with power gating = 0.0200646 W
            Gate Leakage = 0.00495789 W
            Runtime Dynamic = 0.0377909 W

    L2
    Area = 4.53318 mm^2
    Peak Dynamic = 0.0657131 W
    Subthreshold Leakage = 0.593748 W
    Subthreshold Leakage with power gating = 0.285481 W
    Gate Leakage = 0.015464 W
    Runtime Dynamic = 0.0106033 W

*****************************************************************************************
Core:
      Area = 25.6888 mm^2
      Peak Dynamic = 5.40416 W
      Subthreshold Leakage = 3.22341 W
      Subthreshold Leakage with power gating = 1.36419 W
      Gate Leakage = 0.280015 W
      Runtime Dynamic = 0.415767 W

      Instruction Fetch Unit:
        Area = 5.98523 mm^2
        Peak Dynamic = 3.0176 W
        Subthreshold Leakage = 0.703301 W
        Subthreshold Leakage with power gating = 0.305608 W
        Gate Leakage = 0.0682541 W
        Runtime Dynamic = 0.123143 W

          Instruction Cache:
            Area = 3.14635 mm^2
            Peak Dynamic = 0.673675 W
            Subthreshold Leakage = 0.261248 W
            Subthreshold Leakage with power gating = 0.1284 W
            Gate Leakage = 0.029931 W
            Runtime Dynamic = 0.0711425 W

          Branch Target Buffer:
            Area = 0.64954 mm^2
            Peak Dynamic = 0.177867 W
            Subthreshold Leakage = 0.057776 W
            Subthreshold Leakage with power gating = 0.030989 W
            Gate Leakage = 0.00272758 W
            Runtime Dynamic = 0.00405338 W

          Branch Predictor:
            Area = 0.138516 mm^2
            Peak Dynamic = 0.0597838 W
            Subthreshold Leakage = 0.014215 W
            Subthreshold Leakage with power gating = 0.0073517 W
            Gate Leakage = 0.000757657 W
            Runtime Dynamic = 0.0013849 W

              Global Predictor:
                Area = 0.0435221 mm^2
                Peak Dynamic = 0.0168831 W
                Subthreshold Leakage = 0.00540773 W
                Subthreshold Leakage with power gating = 0.00279284 W
                Gate Leakage = 0.000278362 W
                Runtime Dynamic = 0.00042687 W

              Local Predictor:
              L1_Local Predictor:
                Area = 0.0257064 mm^2
                Peak Dynamic = 0.0142575 W
                Subthreshold Leakage = 0.00273579 W
                Subthreshold Leakage with power gating = 0.00141387 W
                Gate Leakage = 0.000154548 W
                Runtime Dynamic = 0.000372907 W

              L2_Local Predictor:
                Area = 0.0151917 mm^2
                Peak Dynamic = 0.00527447 W
                Subthreshold Leakage = 0.00129084 W
                Subthreshold Leakage with power gating = 0.000681231 W
                Gate Leakage = 8.00196e-05 W
                Runtime Dynamic = 0.000144962 W

              Chooser:
                Area = 0.0435221 mm^2
                Peak Dynamic = 0.0168831 W
                Subthreshold Leakage = 0.00540773 W
                Subthreshold Leakage with power gating = 0.00279284 W
                Gate Leakage = 0.000278362 W
                Runtime Dynamic = 0.00042687 W

              RAS:
                Area = 0.0105732 mm^2
                Peak Dynamic = 0.0117602 W
                Subthreshold Leakage = 0.000663763 W
                Subthreshold Leakage with power gating = 0.000352154 W
                Gate Leakage = 4.63858e-05 W
                Runtime Dynamic = 0.000158255 W

          Instruction Buffer:
            Area = 0.0226323 mm^2
            Peak Dynamic = 0.606827 W
            Subthreshold Leakage = 0.00108112 W
            Subthreshold Leakage with power gating = 0.000499461 W
            Gate Leakage = 6.83558e-05 W
            Runtime Dynamic = 0.010591 W

          Instruction Decoder:
            Area = 1.85799 mm^2
            Peak Dynamic = 1.37404 W
            Subthreshold Leakage = 0.31529 W
            Subthreshold Leakage with power gating = 0.118234 W
            Gate Leakage = 0.0222493 W
            Runtime Dynamic = 0.0359717 W

      Load Store Unit:
        Area = 8.05439 mm^2
        Peak Dynamic = 1.56699 W
        Subthreshold Leakage = 0.453895 W
        Subthreshold Leakage with power gating = 0.212713 W
        Gate Leakage = 0.0437459 W
        Runtime Dynamic = 0.184754 W

          Data Cache:
            Area = 6.84535 mm^2
            Peak Dynamic = 1.50407 W
            Subthreshold Leakage = 0.375602 W
            Subthreshold Leakage with power gating = 0.178556 W
            Gate Leakage = 0.0279261 W
            Runtime Dynamic = 0.142162 W

          Load/Store Queue:
            Area = 0.322079 mm^2
            Peak Dynamic = 0.0212963 W
            Subthreshold Leakage = 0.0246015 W
            Subthreshold Leakage with power gating = 0.0140229 W
            Gate Leakage = 0.00329971 W
            Runtime Dynamic = 0.0425919 W

      Memory Management Unit:
        Area = 0.559739 mm^2
        Peak Dynamic = 0.669059 W
        Subthreshold Leakage = 0.0942255 W
        Subthreshold Leakage with power gating = 0.0432387 W
        Gate Leakage = 0.0173421 W
        Runtime Dynamic = 0.0134111 W

          Itlb:
            Area = 0.301552 mm^2
            Peak Dynamic = 0.0418866 W
            Subthreshold Leakage = 0.0294516 W
            Subthreshold Leakage with power gating = 0.0167874 W
            Gate Leakage = 0.00393464 W
            Runtime Dynamic = 0.00530575 W

          Dtlb:
            Area = 0.0879726 mm^2
            Peak Dynamic = 0.00755811 W
            Subthreshold Leakage = 0.0110828 W
            Subthreshold Leakage with power gating = 0.00631717 W
            Gate Leakage = 0.00088729 W
            Runtime Dynamic = 0.00810534 W

      Execution Unit:
        Area = 6.14103 mm^2
        Peak Dynamic = 0.0854586 W
        Subthreshold Leakage = 1.25199 W
        Subthreshold Leakage with power gating = 0.469807 W
        Gate Leakage = 0.12351 W
        Runtime Dynamic = 0.0837907 W

          Register Files:
            Area = 0.570804 mm^2
            Peak Dynamic = 0.0107722 W
            Subthreshold Leakage = 0.00721681 W
            Subthreshold Leakage with power gating = 0.00301552 W
            Gate Leakage = 0.000622708 W
            Runtime Dynamic = 0.0125067 W

              Integer RF:
                Area = 0.362673 mm^2
                Peak Dynamic = 0.0107722 W
                Subthreshold Leakage = 0.00437174 W
                Subthreshold Leakage with power gating = 0.00175585 W
                Gate Leakage = 0.00038992 W
                Runtime Dynamic = 0.011017 W

              Floating Point RF:
                Area = 0.208131 mm^2
                Peak Dynamic = 0 W
                Subthreshold Leakage = 0.00284507 W
                Subthreshold Leakage with power gating = 0.00125967 W
                Gate Leakage = 0.000232788 W
                Runtime Dynamic = 0.00148965 W

          Instruction Scheduler:
            Area = 0 mm^2
            Peak Dynamic = 0 W
            Subthreshold Leakage = 0 W
            Subthreshold Leakage with power gating = -nan W
            Gate Leakage = 0 W
            Runtime Dynamic = 0 W

          Integer ALUs (Count: 6 ):
            Area = 0.47087 mm^2
            Peak Dynamic = 0.0388504 W
            Subthreshold Leakage = 0.286303 W
            Subthreshold Leakage with power gating = 0.107364 W
            Gate Leakage = 0.0265291 W
            Runtime Dynamic = 0.0331061 W

          Floating Point Units (FPUs) (Count: 2 ):
            Area = 4.6585 mm^2
            Peak Dynamic = 0 W
            Subthreshold Leakage = 0.708126 W
            Subthreshold Leakage with power gating = 0.265547 W
            Gate Leakage = 0.0656156 W
            Runtime Dynamic = 0 W

          Complex ALUs (Mul/Div) (Count: 1 ):
            Area = 0.235435 mm^2
            Peak Dynamic = 0 W
            Subthreshold Leakage = 0.143151 W
            Subthreshold Leakage with power gating = 0.0536818 W
            Gate Leakage = 0.0132646 W
            Runtime Dynamic = 0 W

          Results Broadcast Bus:
            Area Overhead = 0.0352036 mm^2
            Peak Dynamic = 0.0149341 W
            Subthreshold Leakage = 0.0535057 W
            Subthreshold Leakage with power gating = 0.0200646 W
            Gate Leakage = 0.00495789 W
            Runtime Dynamic = 0.0381779 W

    L2
    Area = 4.53318 mm^2
    Peak Dynamic = 0.0650514 W
    Subthreshold Leakage = 0.593748 W
    Subthreshold Leakage with power gating = 0.285481 W
    Gate Leakage = 0.015464 W
    Runtime Dynamic = 0.0106679 W

*****************************************************************************************
Core:
      Area = 25.6888 mm^2
      Peak Dynamic = 5.43772 W
      Subthreshold Leakage = 3.22341 W
      Subthreshold Leakage with power gating = 1.36419 W
      Gate Leakage = 0.280015 W
      Runtime Dynamic = 0.415025 W

      Instruction Fetch Unit:
        Area = 5.98523 mm^2
        Peak Dynamic = 3.04508 W
        Subthreshold Leakage = 0.703301 W
        Subthreshold Leakage with power gating = 0.305608 W
        Gate Leakage = 0.0682541 W
        Runtime Dynamic = 0.118266 W

          Instruction Cache:
            Area = 3.14635 mm^2
            Peak Dynamic = 0.696841 W
            Subthreshold Leakage = 0.261248 W
            Subthreshold Leakage with power gating = 0.1284 W
            Gate Leakage = 0.029931 W
            Runtime Dynamic = 0.0644545 W

          Branch Target Buffer:
            Area = 0.64954 mm^2
            Peak Dynamic = 0.177867 W
            Subthreshold Leakage = 0.057776 W
            Subthreshold Leakage with power gating = 0.030989 W
            Gate Leakage = 0.00272758 W
            Runtime Dynamic = 0.00420748 W

          Branch Predictor:
            Area = 0.138516 mm^2
            Peak Dynamic = 0.0597838 W
            Subthreshold Leakage = 0.014215 W
            Subthreshold Leakage with power gating = 0.0073517 W
            Gate Leakage = 0.000757657 W
            Runtime Dynamic = 0.00144061 W

              Global Predictor:
                Area = 0.0435221 mm^2
                Peak Dynamic = 0.0168831 W
                Subthreshold Leakage = 0.00540773 W
                Subthreshold Leakage with power gating = 0.00279284 W
                Gate Leakage = 0.000278362 W
                Runtime Dynamic = 0.000444256 W

              Local Predictor:
              L1_Local Predictor:
                Area = 0.0257064 mm^2
                Peak Dynamic = 0.0142575 W
                Subthreshold Leakage = 0.00273579 W
                Subthreshold Leakage with power gating = 0.00141387 W
                Gate Leakage = 0.000154548 W
                Runtime Dynamic = 0.000388402 W

              L2_Local Predictor:
                Area = 0.0151917 mm^2
                Peak Dynamic = 0.00527447 W
                Subthreshold Leakage = 0.00129084 W
                Subthreshold Leakage with power gating = 0.000681231 W
                Gate Leakage = 8.00196e-05 W
                Runtime Dynamic = 0.000151153 W

              Chooser:
                Area = 0.0435221 mm^2
                Peak Dynamic = 0.0168831 W
                Subthreshold Leakage = 0.00540773 W
                Subthreshold Leakage with power gating = 0.00279284 W
                Gate Leakage = 0.000278362 W
                Runtime Dynamic = 0.000444256 W

              RAS:
                Area = 0.0105732 mm^2
                Peak Dynamic = 0.0117602 W
                Subthreshold Leakage = 0.000663763 W
                Subthreshold Leakage with power gating = 0.000352154 W
                Gate Leakage = 4.63858e-05 W
                Runtime Dynamic = 0.000163692 W

          Instruction Buffer:
            Area = 0.0226323 mm^2
            Peak Dynamic = 0.606827 W
            Subthreshold Leakage = 0.00108112 W
            Subthreshold Leakage with power gating = 0.000499461 W
            Gate Leakage = 6.83558e-05 W
            Runtime Dynamic = 0.0109552 W

          Instruction Decoder:
            Area = 1.85799 mm^2
            Peak Dynamic = 1.37404 W
            Subthreshold Leakage = 0.31529 W
            Subthreshold Leakage with power gating = 0.118234 W
            Gate Leakage = 0.0222493 W
            Runtime Dynamic = 0.0372086 W

      Load Store Unit:
        Area = 8.05439 mm^2
        Peak Dynamic = 1.57699 W
        Subthreshold Leakage = 0.453895 W
        Subthreshold Leakage with power gating = 0.212713 W
        Gate Leakage = 0.0437459 W
        Runtime Dynamic = 0.187675 W

          Data Cache:
            Area = 6.84535 mm^2
            Peak Dynamic = 1.51217 W
            Subthreshold Leakage = 0.375602 W
            Subthreshold Leakage with power gating = 0.178556 W
            Gate Leakage = 0.0279261 W
            Runtime Dynamic = 0.143791 W

          Load/Store Queue:
            Area = 0.322079 mm^2
            Peak Dynamic = 0.0219421 W
            Subthreshold Leakage = 0.0246015 W
            Subthreshold Leakage with power gating = 0.0140229 W
            Gate Leakage = 0.00329971 W
            Runtime Dynamic = 0.043884 W

      Memory Management Unit:
        Area = 0.559739 mm^2
        Peak Dynamic = 0.67136 W
        Subthreshold Leakage = 0.0942255 W
        Subthreshold Leakage with power gating = 0.0432387 W
        Gate Leakage = 0.0173421 W
        Runtime Dynamic = 0.0137525 W

          Itlb:
            Area = 0.301552 mm^2
            Peak Dynamic = 0.043327 W
            Subthreshold Leakage = 0.0294516 W
            Subthreshold Leakage with power gating = 0.0167874 W
            Gate Leakage = 0.00393464 W
            Runtime Dynamic = 0.00547054 W

          Dtlb:
            Area = 0.0879726 mm^2
            Peak Dynamic = 0.00778733 W
            Subthreshold Leakage = 0.0110828 W
            Subthreshold Leakage with power gating = 0.00631717 W
            Gate Leakage = 0.00088729 W
            Runtime Dynamic = 0.00828193 W

      Execution Unit:
        Area = 6.14103 mm^2
        Peak Dynamic = 0.0883965 W
        Subthreshold Leakage = 1.25199 W
        Subthreshold Leakage with power gating = 0.469807 W
        Gate Leakage = 0.12351 W
        Runtime Dynamic = 0.086647 W

          Register Files:
            Area = 0.570804 mm^2
            Peak Dynamic = 0.0111425 W
            Subthreshold Leakage = 0.00721681 W
            Subthreshold Leakage with power gating = 0.00301552 W
            Gate Leakage = 0.000622708 W
            Runtime Dynamic = 0.0129368 W

              Integer RF:
                Area = 0.362673 mm^2
                Peak Dynamic = 0.0111425 W
                Subthreshold Leakage = 0.00437174 W
                Subthreshold Leakage with power gating = 0.00175585 W
                Gate Leakage = 0.00038992 W
                Runtime Dynamic = 0.0113959 W

              Floating Point RF:
                Area = 0.208131 mm^2
                Peak Dynamic = 0 W
                Subthreshold Leakage = 0.00284507 W
                Subthreshold Leakage with power gating = 0.00125967 W
                Gate Leakage = 0.000232788 W
                Runtime Dynamic = 0.0015409 W

          Instruction Scheduler:
            Area = 0 mm^2
            Peak Dynamic = 0 W
            Subthreshold Leakage = 0 W
            Subthreshold Leakage with power gating = -nan W
            Gate Leakage = 0 W
            Runtime Dynamic = 0 W

          Integer ALUs (Count: 6 ):
            Area = 0.47087 mm^2
            Peak Dynamic = 0.040186 W
            Subthreshold Leakage = 0.286303 W
            Subthreshold Leakage with power gating = 0.107364 W
            Gate Leakage = 0.0265291 W
            Runtime Dynamic = 0.0342329 W

          Floating Point Units (FPUs) (Count: 2 ):
            Area = 4.6585 mm^2
            Peak Dynamic = 0 W
            Subthreshold Leakage = 0.708126 W
            Subthreshold Leakage with power gating = 0.265547 W
            Gate Leakage = 0.0656156 W
            Runtime Dynamic = 0 W

          Complex ALUs (Mul/Div) (Count: 1 ):
            Area = 0.235435 mm^2
            Peak Dynamic = 0 W
            Subthreshold Leakage = 0.143151 W
            Subthreshold Leakage with power gating = 0.0536818 W
            Gate Leakage = 0.0132646 W
            Runtime Dynamic = 0 W

          Results Broadcast Bus:
            Area Overhead = 0.0352036 mm^2
            Peak Dynamic = 0.0154475 W
            Subthreshold Leakage = 0.0535057 W
            Subthreshold Leakage with power gating = 0.0200646 W
            Gate Leakage = 0.00495789 W
            Runtime Dynamic = 0.0394774 W

    L2
    Area = 4.53318 mm^2
    Peak Dynamic = 0.0558856 W
    Subthreshold Leakage = 0.593748 W
    Subthreshold Leakage with power gating = 0.285481 W
    Gate Leakage = 0.015464 W
    Runtime Dynamic = 0.00868429 W

*****************************************************************************************
Core:
      Area = 25.6888 mm^2
      Peak Dynamic = 5.42829 W
      Subthreshold Leakage = 3.22341 W
      Subthreshold Leakage with power gating = 1.36419 W
      Gate Leakage = 0.280015 W
      Runtime Dynamic = 0.415318 W

      Instruction Fetch Unit:
        Area = 5.98523 mm^2
        Peak Dynamic = 3.03782 W
        Subthreshold Leakage = 0.703301 W
        Subthreshold Leakage with power gating = 0.305608 W
        Gate Leakage = 0.0682541 W
        Runtime Dynamic = 0.119909 W

          Instruction Cache:
            Area = 3.14635 mm^2
            Peak Dynamic = 0.690723 W
            Subthreshold Leakage = 0.261248 W
            Subthreshold Leakage with power gating = 0.1284 W
            Gate Leakage = 0.029931 W
            Runtime Dynamic = 0.0665757 W

          Branch Target Buffer:
            Area = 0.64954 mm^2
            Peak Dynamic = 0.177867 W
            Subthreshold Leakage = 0.057776 W
            Subthreshold Leakage with power gating = 0.030989 W
            Gate Leakage = 0.00272758 W
            Runtime Dynamic = 0.00416772 W

          Branch Predictor:
            Area = 0.138516 mm^2
            Peak Dynamic = 0.0597838 W
            Subthreshold Leakage = 0.014215 W
            Subthreshold Leakage with power gating = 0.0073517 W
            Gate Leakage = 0.000757657 W
            Runtime Dynamic = 0.00142493 W

              Global Predictor:
                Area = 0.0435221 mm^2
                Peak Dynamic = 0.0168831 W
                Subthreshold Leakage = 0.00540773 W
                Subthreshold Leakage with power gating = 0.00279284 W
                Gate Leakage = 0.000278362 W
                Runtime Dynamic = 0.000439362 W

              Local Predictor:
              L1_Local Predictor:
                Area = 0.0257064 mm^2
                Peak Dynamic = 0.0142575 W
                Subthreshold Leakage = 0.00273579 W
                Subthreshold Leakage with power gating = 0.00141387 W
                Gate Leakage = 0.000154548 W
                Runtime Dynamic = 0.000383939 W

              L2_Local Predictor:
                Area = 0.0151917 mm^2
                Peak Dynamic = 0.00527447 W
                Subthreshold Leakage = 0.00129084 W
                Subthreshold Leakage with power gating = 0.000681231 W
                Gate Leakage = 8.00196e-05 W
                Runtime Dynamic = 0.000149316 W

              Chooser:
                Area = 0.0435221 mm^2
                Peak Dynamic = 0.0168831 W
                Subthreshold Leakage = 0.00540773 W
                Subthreshold Leakage with power gating = 0.00279284 W
                Gate Leakage = 0.000278362 W
                Runtime Dynamic = 0.000439362 W

              RAS:
                Area = 0.0105732 mm^2
                Peak Dynamic = 0.0117602 W
                Subthreshold Leakage = 0.000663763 W
                Subthreshold Leakage with power gating = 0.000352154 W
                Gate Leakage = 4.63858e-05 W
                Runtime Dynamic = 0.000162266 W

          Instruction Buffer:
            Area = 0.0226323 mm^2
            Peak Dynamic = 0.606827 W
            Subthreshold Leakage = 0.00108112 W
            Subthreshold Leakage with power gating = 0.000499461 W
            Gate Leakage = 6.83558e-05 W
            Runtime Dynamic = 0.010859 W

          Instruction Decoder:
            Area = 1.85799 mm^2
            Peak Dynamic = 1.37404 W
            Subthreshold Leakage = 0.31529 W
            Subthreshold Leakage with power gating = 0.118234 W
            Gate Leakage = 0.0222493 W
            Runtime Dynamic = 0.036882 W

      Load Store Unit:
        Area = 8.05439 mm^2
        Peak Dynamic = 1.57326 W
        Subthreshold Leakage = 0.453895 W
        Subthreshold Leakage with power gating = 0.212713 W
        Gate Leakage = 0.0437459 W
        Runtime Dynamic = 0.186569 W

          Data Cache:
            Area = 6.84535 mm^2
            Peak Dynamic = 1.50914 W
            Subthreshold Leakage = 0.375602 W
            Subthreshold Leakage with power gating = 0.178556 W
            Gate Leakage = 0.0279261 W
            Runtime Dynamic = 0.143167 W

          Load/Store Queue:
            Area = 0.322079 mm^2
            Peak Dynamic = 0.0217007 W
            Subthreshold Leakage = 0.0246015 W
            Subthreshold Leakage with power gating = 0.0140229 W
            Gate Leakage = 0.00329971 W
            Runtime Dynamic = 0.0434016 W

      Memory Management Unit:
        Area = 0.559739 mm^2
        Peak Dynamic = 0.670658 W
        Subthreshold Leakage = 0.0942255 W
        Subthreshold Leakage with power gating = 0.0432387 W
        Gate Leakage = 0.0173421 W
        Runtime Dynamic = 0.0136171 W

          Itlb:
            Area = 0.301552 mm^2
            Peak Dynamic = 0.0429466 W
            Subthreshold Leakage = 0.0294516 W
            Subthreshold Leakage with power gating = 0.0167874 W
            Gate Leakage = 0.00393464 W
            Runtime Dynamic = 0.00540292 W

          Dtlb:
            Area = 0.0879726 mm^2
            Peak Dynamic = 0.00770165 W
            Subthreshold Leakage = 0.0110828 W
            Subthreshold Leakage with power gating = 0.00631717 W
            Gate Leakage = 0.00088729 W
            Runtime Dynamic = 0.00821418 W

      Execution Unit:
        Area = 6.14103 mm^2
        Peak Dynamic = 0.0876228 W
        Subthreshold Leakage = 1.25199 W
        Subthreshold Leakage with power gating = 0.469807 W
        Gate Leakage = 0.12351 W
        Runtime Dynamic = 0.0858605 W

          Register Files:
            Area = 0.570804 mm^2
            Peak Dynamic = 0.011045 W
            Subthreshold Leakage = 0.00721681 W
            Subthreshold Leakage with power gating = 0.00301552 W
            Gate Leakage = 0.000622708 W
            Runtime Dynamic = 0.0128232 W

              Integer RF:
                Area = 0.362673 mm^2
                Peak Dynamic = 0.011045 W
                Subthreshold Leakage = 0.00437174 W
                Subthreshold Leakage with power gating = 0.00175585 W
                Gate Leakage = 0.00038992 W
                Runtime Dynamic = 0.0112958 W

              Floating Point RF:
                Area = 0.208131 mm^2
                Peak Dynamic = 0 W
                Subthreshold Leakage = 0.00284507 W
                Subthreshold Leakage with power gating = 0.00125967 W
                Gate Leakage = 0.000232788 W
                Runtime Dynamic = 0.00152735 W

          Instruction Scheduler:
            Area = 0 mm^2
            Peak Dynamic = 0 W
            Subthreshold Leakage = 0 W
            Subthreshold Leakage with power gating = -nan W
            Gate Leakage = 0 W
            Runtime Dynamic = 0 W

          Integer ALUs (Count: 6 ):
            Area = 0.47087 mm^2
            Peak Dynamic = 0.0398343 W
            Subthreshold Leakage = 0.286303 W
            Subthreshold Leakage with power gating = 0.107364 W
            Gate Leakage = 0.0265291 W
            Runtime Dynamic = 0.0339204 W

          Floating Point Units (FPUs) (Count: 2 ):
            Area = 4.6585 mm^2
            Peak Dynamic = 0 W
            Subthreshold Leakage = 0.708126 W
            Subthreshold Leakage with power gating = 0.265547 W
            Gate Leakage = 0.0656156 W
            Runtime Dynamic = 0 W

          Complex ALUs (Mul/Div) (Count: 1 ):
            Area = 0.235435 mm^2
            Peak Dynamic = 0 W
            Subthreshold Leakage = 0.143151 W
            Subthreshold Leakage with power gating = 0.0536818 W
            Gate Leakage = 0.0132646 W
            Runtime Dynamic = 0 W

          Results Broadcast Bus:
            Area Overhead = 0.0352036 mm^2
            Peak Dynamic = 0.0153123 W
            Subthreshold Leakage = 0.0535057 W
            Subthreshold Leakage with power gating = 0.0200646 W
            Gate Leakage = 0.00495789 W
            Runtime Dynamic = 0.039117 W

    L2
    Area = 4.53318 mm^2
    Peak Dynamic = 0.0589341 W
    Subthreshold Leakage = 0.593748 W
    Subthreshold Leakage with power gating = 0.285481 W
    Gate Leakage = 0.015464 W
    Runtime Dynamic = 0.00936242 W

*****************************************************************************************
Core:
      Area = 25.6888 mm^2
      Peak Dynamic = 5.40641 W
      Subthreshold Leakage = 3.22341 W
      Subthreshold Leakage with power gating = 1.36419 W
      Gate Leakage = 0.280015 W
      Runtime Dynamic = 0.414655 W

      Instruction Fetch Unit:
        Area = 5.98523 mm^2
        Peak Dynamic = 3.01997 W
        Subthreshold Leakage = 0.703301 W
        Subthreshold Leakage with power gating = 0.305608 W
        Gate Leakage = 0.0682541 W
        Runtime Dynamic = 0.121796 W

          Instruction Cache:
            Area = 3.14635 mm^2
            Peak Dynamic = 0.675669 W
            Subthreshold Leakage = 0.261248 W
            Subthreshold Leakage with power gating = 0.1284 W
            Gate Leakage = 0.029931 W
            Runtime Dynamic = 0.069646 W

          Branch Target Buffer:
            Area = 0.64954 mm^2
            Peak Dynamic = 0.177867 W
            Subthreshold Leakage = 0.057776 W
            Subthreshold Leakage with power gating = 0.030989 W
            Gate Leakage = 0.00272758 W
            Runtime Dynamic = 0.00406129 W

          Branch Predictor:
            Area = 0.138516 mm^2
            Peak Dynamic = 0.0597838 W
            Subthreshold Leakage = 0.014215 W
            Subthreshold Leakage with power gating = 0.0073517 W
            Gate Leakage = 0.000757657 W
            Runtime Dynamic = 0.00138777 W

              Global Predictor:
                Area = 0.0435221 mm^2
                Peak Dynamic = 0.0168831 W
                Subthreshold Leakage = 0.00540773 W
                Subthreshold Leakage with power gating = 0.00279284 W
                Gate Leakage = 0.000278362 W
                Runtime Dynamic = 0.000427708 W

              Local Predictor:
              L1_Local Predictor:
                Area = 0.0257064 mm^2
                Peak Dynamic = 0.0142575 W
                Subthreshold Leakage = 0.00273579 W
                Subthreshold Leakage with power gating = 0.00141387 W
                Gate Leakage = 0.000154548 W
                Runtime Dynamic = 0.00037364 W

              L2_Local Predictor:
                Area = 0.0151917 mm^2
                Peak Dynamic = 0.00527447 W
                Subthreshold Leakage = 0.00129084 W
                Subthreshold Leakage with power gating = 0.000681231 W
                Gate Leakage = 8.00196e-05 W
                Runtime Dynamic = 0.000145247 W

              Chooser:
                Area = 0.0435221 mm^2
                Peak Dynamic = 0.0168831 W
                Subthreshold Leakage = 0.00540773 W
                Subthreshold Leakage with power gating = 0.00279284 W
                Gate Leakage = 0.000278362 W
                Runtime Dynamic = 0.000427708 W

              RAS:
                Area = 0.0105732 mm^2
                Peak Dynamic = 0.0117602 W
                Subthreshold Leakage = 0.000663763 W
                Subthreshold Leakage with power gating = 0.000352154 W
                Gate Leakage = 4.63858e-05 W
                Runtime Dynamic = 0.000158713 W

          Instruction Buffer:
            Area = 0.0226323 mm^2
            Peak Dynamic = 0.606827 W
            Subthreshold Leakage = 0.00108112 W
            Subthreshold Leakage with power gating = 0.000499461 W
            Gate Leakage = 6.83558e-05 W
            Runtime Dynamic = 0.0106223 W

          Instruction Decoder:
            Area = 1.85799 mm^2
            Peak Dynamic = 1.37404 W
            Subthreshold Leakage = 0.31529 W
            Subthreshold Leakage with power gating = 0.118234 W
            Gate Leakage = 0.0222493 W
            Runtime Dynamic = 0.0360781 W

      Load Store Unit:
        Area = 8.05439 mm^2
        Peak Dynamic = 1.56789 W
        Subthreshold Leakage = 0.453895 W
        Subthreshold Leakage with power gating = 0.212713 W
        Gate Leakage = 0.0437459 W
        Runtime Dynamic = 0.185063 W

          Data Cache:
            Area = 6.84535 mm^2
            Peak Dynamic = 1.5048 W
            Subthreshold Leakage = 0.375602 W
            Subthreshold Leakage with power gating = 0.178556 W
            Gate Leakage = 0.0279261 W
            Runtime Dynamic = 0.142355 W

          Load/Store Queue:
            Area = 0.322079 mm^2
            Peak Dynamic = 0.0213545 W
            Subthreshold Leakage = 0.0246015 W
            Subthreshold Leakage with power gating = 0.0140229 W
            Gate Leakage = 0.00329971 W
            Runtime Dynamic = 0.0427087 W

      Memory Management Unit:
        Area = 0.559739 mm^2
        Peak Dynamic = 0.66926 W
        Subthreshold Leakage = 0.0942255 W
        Subthreshold Leakage with power gating = 0.0432387 W
        Gate Leakage = 0.0173421 W
        Runtime Dynamic = 0.0134388 W

          Itlb:
            Area = 0.301552 mm^2
            Peak Dynamic = 0.0420106 W
            Subthreshold Leakage = 0.0294516 W
            Subthreshold Leakage with power gating = 0.0167874 W
            Gate Leakage = 0.00393464 W
            Runtime Dynamic = 0.0053175 W

          Dtlb:
            Area = 0.0879726 mm^2
            Peak Dynamic = 0.00757877 W
            Subthreshold Leakage = 0.0110828 W
            Subthreshold Leakage with power gating = 0.00631717 W
            Gate Leakage = 0.00088729 W
            Runtime Dynamic = 0.0081213 W

      Execution Unit:
        Area = 6.14103 mm^2
        Peak Dynamic = 0.0857132 W
        Subthreshold Leakage = 1.25199 W
        Subthreshold Leakage with power gating = 0.469807 W
        Gate Leakage = 0.12351 W
        Runtime Dynamic = 0.0840568 W

          Register Files:
            Area = 0.570804 mm^2
            Peak Dynamic = 0.0108043 W
            Subthreshold Leakage = 0.00721681 W
            Subthreshold Leakage with power gating = 0.00301552 W
            Gate Leakage = 0.000622708 W
            Runtime Dynamic = 0.0125437 W

              Integer RF:
                Area = 0.362673 mm^2
                Peak Dynamic = 0.0108043 W
                Subthreshold Leakage = 0.00437174 W
                Subthreshold Leakage with power gating = 0.00175585 W
                Gate Leakage = 0.00038992 W
                Runtime Dynamic = 0.0110496 W

              Floating Point RF:
                Area = 0.208131 mm^2
                Peak Dynamic = 0 W
                Subthreshold Leakage = 0.00284507 W
                Subthreshold Leakage with power gating = 0.00125967 W
                Gate Leakage = 0.000232788 W
                Runtime Dynamic = 0.00149408 W

          Instruction Scheduler:
            Area = 0 mm^2
            Peak Dynamic = 0 W
            Subthreshold Leakage = 0 W
            Subthreshold Leakage with power gating = -nan W
            Gate Leakage = 0 W
            Runtime Dynamic = 0 W

          Integer ALUs (Count: 6 ):
            Area = 0.47087 mm^2
            Peak Dynamic = 0.0389662 W
            Subthreshold Leakage = 0.286303 W
            Subthreshold Leakage with power gating = 0.107364 W
            Gate Leakage = 0.0265291 W
            Runtime Dynamic = 0.0332124 W

          Floating Point Units (FPUs) (Count: 2 ):
            Area = 4.6585 mm^2
            Peak Dynamic = 0 W
            Subthreshold Leakage = 0.708126 W
            Subthreshold Leakage with power gating = 0.265547 W
            Gate Leakage = 0.0656156 W
            Runtime Dynamic = 0 W

          Complex ALUs (Mul/Div) (Count: 1 ):
            Area = 0.235435 mm^2
            Peak Dynamic = 0 W
            Subthreshold Leakage = 0.143151 W
            Subthreshold Leakage with power gating = 0.0536818 W
            Gate Leakage = 0.0132646 W
            Runtime Dynamic = 0 W

          Results Broadcast Bus:
            Area Overhead = 0.0352036 mm^2
            Peak Dynamic = 0.0149786 W
            Subthreshold Leakage = 0.0535057 W
            Subthreshold Leakage with power gating = 0.0200646 W
            Gate Leakage = 0.00495789 W
            Runtime Dynamic = 0.0383006 W

    L2
    Area = 4.53318 mm^2
    Peak Dynamic = 0.0635806 W
    Subthreshold Leakage = 0.593748 W
    Subthreshold Leakage with power gating = 0.285481 W
    Gate Leakage = 0.015464 W
    Runtime Dynamic = 0.0103011 W

*****************************************************************************************
Core:
      Area = 25.6888 mm^2
      Peak Dynamic = 5.41392 W
      Subthreshold Leakage = 3.22341 W
      Subthreshold Leakage with power gating = 1.36419 W
      Gate Leakage = 0.280015 W
      Runtime Dynamic = 0.4173 W

      Instruction Fetch Unit:
        Area = 5.98523 mm^2
        Peak Dynamic = 3.02419 W
        Subthreshold Leakage = 0.703301 W
        Subthreshold Leakage with power gating = 0.305608 W
        Gate Leakage = 0.0682541 W
        Runtime Dynamic = 0.122756 W

          Instruction Cache:
            Area = 3.14635 mm^2
            Peak Dynamic = 0.679233 W
            Subthreshold Leakage = 0.261248 W
            Subthreshold Leakage with power gating = 0.1284 W
            Gate Leakage = 0.029931 W
            Runtime Dynamic = 0.0703432 W

          Branch Target Buffer:
            Area = 0.64954 mm^2
            Peak Dynamic = 0.177867 W
            Subthreshold Leakage = 0.057776 W
            Subthreshold Leakage with power gating = 0.030989 W
            Gate Leakage = 0.00272758 W
            Runtime Dynamic = 0.00407396 W

          Branch Predictor:
            Area = 0.138516 mm^2
            Peak Dynamic = 0.0597838 W
            Subthreshold Leakage = 0.014215 W
            Subthreshold Leakage with power gating = 0.0073517 W
            Gate Leakage = 0.000757657 W
            Runtime Dynamic = 0.00139236 W

              Global Predictor:
                Area = 0.0435221 mm^2
                Peak Dynamic = 0.0168831 W
                Subthreshold Leakage = 0.00540773 W
                Subthreshold Leakage with power gating = 0.00279284 W
                Gate Leakage = 0.000278362 W
                Runtime Dynamic = 0.000429018 W

              Local Predictor:
              L1_Local Predictor:
                Area = 0.0257064 mm^2
                Peak Dynamic = 0.0142575 W
                Subthreshold Leakage = 0.00273579 W
                Subthreshold Leakage with power gating = 0.00141387 W
                Gate Leakage = 0.000154548 W
                Runtime Dynamic = 0.000374778 W

              L2_Local Predictor:
                Area = 0.0151917 mm^2
                Peak Dynamic = 0.00527447 W
                Subthreshold Leakage = 0.00129084 W
                Subthreshold Leakage with power gating = 0.000681231 W
                Gate Leakage = 8.00196e-05 W
                Runtime Dynamic = 0.000145686 W

              Chooser:
                Area = 0.0435221 mm^2
                Peak Dynamic = 0.0168831 W
                Subthreshold Leakage = 0.00540773 W
                Subthreshold Leakage with power gating = 0.00279284 W
                Gate Leakage = 0.000278362 W
                Runtime Dynamic = 0.000429018 W

              RAS:
                Area = 0.0105732 mm^2
                Peak Dynamic = 0.0117602 W
                Subthreshold Leakage = 0.000663763 W
                Subthreshold Leakage with power gating = 0.000352154 W
                Gate Leakage = 4.63858e-05 W
                Runtime Dynamic = 0.000159547 W

          Instruction Buffer:
            Area = 0.0226323 mm^2
            Peak Dynamic = 0.606827 W
            Subthreshold Leakage = 0.00108112 W
            Subthreshold Leakage with power gating = 0.000499461 W
            Gate Leakage = 6.83558e-05 W
            Runtime Dynamic = 0.0106783 W

          Instruction Decoder:
            Area = 1.85799 mm^2
            Peak Dynamic = 1.37404 W
            Subthreshold Leakage = 0.31529 W
            Subthreshold Leakage with power gating = 0.118234 W
            Gate Leakage = 0.0222493 W
            Runtime Dynamic = 0.0362684 W

      Load Store Unit:
        Area = 8.05439 mm^2
        Peak Dynamic = 1.56976 W
        Subthreshold Leakage = 0.453895 W
        Subthreshold Leakage with power gating = 0.212713 W
        Gate Leakage = 0.0437459 W
        Runtime Dynamic = 0.18607 W

          Data Cache:
            Area = 6.84535 mm^2
            Peak Dynamic = 1.50632 W
            Subthreshold Leakage = 0.375602 W
            Subthreshold Leakage with power gating = 0.178556 W
            Gate Leakage = 0.0279261 W
            Runtime Dynamic = 0.14312 W

          Load/Store Queue:
            Area = 0.322079 mm^2
            Peak Dynamic = 0.0214752 W
            Subthreshold Leakage = 0.0246015 W
            Subthreshold Leakage with power gating = 0.0140229 W
            Gate Leakage = 0.00329971 W
            Runtime Dynamic = 0.0429499 W

      Memory Management Unit:
        Area = 0.559739 mm^2
        Peak Dynamic = 0.669643 W
        Subthreshold Leakage = 0.0942255 W
        Subthreshold Leakage with power gating = 0.0432387 W
        Gate Leakage = 0.0173421 W
        Runtime Dynamic = 0.0135024 W

          Itlb:
            Area = 0.301552 mm^2
            Peak Dynamic = 0.0422322 W
            Subthreshold Leakage = 0.0294516 W
            Subthreshold Leakage with power gating = 0.0167874 W
            Gate Leakage = 0.00393464 W
            Runtime Dynamic = 0.00533602 W

          Dtlb:
            Area = 0.0879726 mm^2
            Peak Dynamic = 0.00762162 W
            Subthreshold Leakage = 0.0110828 W
            Subthreshold Leakage with power gating = 0.00631717 W
            Gate Leakage = 0.00088729 W
            Runtime Dynamic = 0.00816634 W

      Execution Unit:
        Area = 6.14103 mm^2
        Peak Dynamic = 0.0861637 W
        Subthreshold Leakage = 1.25199 W
        Subthreshold Leakage with power gating = 0.469807 W
        Gate Leakage = 0.12351 W
        Runtime Dynamic = 0.084465 W

          Register Files:
            Area = 0.570804 mm^2
            Peak Dynamic = 0.0108611 W
            Subthreshold Leakage = 0.00721681 W
            Subthreshold Leakage with power gating = 0.00301552 W
            Gate Leakage = 0.000622708 W
            Runtime Dynamic = 0.0126098 W

              Integer RF:
                Area = 0.362673 mm^2
                Peak Dynamic = 0.0108611 W
                Subthreshold Leakage = 0.00437174 W
                Subthreshold Leakage with power gating = 0.00175585 W
                Gate Leakage = 0.00038992 W
                Runtime Dynamic = 0.0111079 W

              Floating Point RF:
                Area = 0.208131 mm^2
                Peak Dynamic = 0 W
                Subthreshold Leakage = 0.00284507 W
                Subthreshold Leakage with power gating = 0.00125967 W
                Gate Leakage = 0.000232788 W
                Runtime Dynamic = 0.00150191 W

          Instruction Scheduler:
            Area = 0 mm^2
            Peak Dynamic = 0 W
            Subthreshold Leakage = 0 W
            Subthreshold Leakage with power gating = -nan W
            Gate Leakage = 0 W
            Runtime Dynamic = 0 W

          Integer ALUs (Count: 6 ):
            Area = 0.47087 mm^2
            Peak Dynamic = 0.039171 W
            Subthreshold Leakage = 0.286303 W
            Subthreshold Leakage with power gating = 0.107364 W
            Gate Leakage = 0.0265291 W
            Runtime Dynamic = 0.0333713 W

          Floating Point Units (FPUs) (Count: 2 ):
            Area = 4.6585 mm^2
            Peak Dynamic = 0 W
            Subthreshold Leakage = 0.708126 W
            Subthreshold Leakage with power gating = 0.265547 W
            Gate Leakage = 0.0656156 W
            Runtime Dynamic = 0 W

          Complex ALUs (Mul/Div) (Count: 1 ):
            Area = 0.235435 mm^2
            Peak Dynamic = 0 W
            Subthreshold Leakage = 0.143151 W
            Subthreshold Leakage with power gating = 0.0536818 W
            Gate Leakage = 0.0132646 W
            Runtime Dynamic = 0 W

          Results Broadcast Bus:
            Area Overhead = 0.0352036 mm^2
            Peak Dynamic = 0.0150573 W
            Subthreshold Leakage = 0.0535057 W
            Subthreshold Leakage with power gating = 0.0200646 W
            Gate Leakage = 0.00495789 W
            Runtime Dynamic = 0.0384838 W

    L2
    Area = 4.53318 mm^2
    Peak Dynamic = 0.0641608 W
    Subthreshold Leakage = 0.593748 W
    Subthreshold Leakage with power gating = 0.285481 W
    Gate Leakage = 0.015464 W
    Runtime Dynamic = 0.0105061 W

*****************************************************************************************
Core:
      Area = 25.6888 mm^2
      Peak Dynamic = 5.37393 W
      Subthreshold Leakage = 3.22341 W
      Subthreshold Leakage with power gating = 1.36419 W
      Gate Leakage = 0.280015 W
      Runtime Dynamic = 0.407099 W

      Instruction Fetch Unit:
        Area = 5.98523 mm^2
        Peak Dynamic = 2.99971 W
        Subthreshold Leakage = 0.703301 W
        Subthreshold Leakage with power gating = 0.305608 W
        Gate Leakage = 0.0682541 W
        Runtime Dynamic = 0.120948 W

          Instruction Cache:
            Area = 3.14635 mm^2
            Peak Dynamic = 0.658596 W
            Subthreshold Leakage = 0.261248 W
            Subthreshold Leakage with power gating = 0.1284 W
            Gate Leakage = 0.029931 W
            Runtime Dynamic = 0.0700816 W

          Branch Target Buffer:
            Area = 0.64954 mm^2
            Peak Dynamic = 0.177867 W
            Subthreshold Leakage = 0.057776 W
            Subthreshold Leakage with power gating = 0.030989 W
            Gate Leakage = 0.00272758 W
            Runtime Dynamic = 0.00398527 W

          Branch Predictor:
            Area = 0.138516 mm^2
            Peak Dynamic = 0.0597838 W
            Subthreshold Leakage = 0.014215 W
            Subthreshold Leakage with power gating = 0.0073517 W
            Gate Leakage = 0.000757657 W
            Runtime Dynamic = 0.0013608 W

              Global Predictor:
                Area = 0.0435221 mm^2
                Peak Dynamic = 0.0168831 W
                Subthreshold Leakage = 0.00540773 W
                Subthreshold Leakage with power gating = 0.00279284 W
                Gate Leakage = 0.000278362 W
                Runtime Dynamic = 0.000419717 W

              Local Predictor:
              L1_Local Predictor:
                Area = 0.0257064 mm^2
                Peak Dynamic = 0.0142575 W
                Subthreshold Leakage = 0.00273579 W
                Subthreshold Leakage with power gating = 0.00141387 W
                Gate Leakage = 0.000154548 W
                Runtime Dynamic = 0.000366663 W

              L2_Local Predictor:
                Area = 0.0151917 mm^2
                Peak Dynamic = 0.00527447 W
                Subthreshold Leakage = 0.00129084 W
                Subthreshold Leakage with power gating = 0.000681231 W
                Gate Leakage = 8.00196e-05 W
                Runtime Dynamic = 0.000142537 W

              Chooser:
                Area = 0.0435221 mm^2
                Peak Dynamic = 0.0168831 W
                Subthreshold Leakage = 0.00540773 W
                Subthreshold Leakage with power gating = 0.00279284 W
                Gate Leakage = 0.000278362 W
                Runtime Dynamic = 0.000419717 W

              RAS:
                Area = 0.0105732 mm^2
                Peak Dynamic = 0.0117602 W
                Subthreshold Leakage = 0.000663763 W
                Subthreshold Leakage with power gating = 0.000352154 W
                Gate Leakage = 4.63858e-05 W
                Runtime Dynamic = 0.000154703 W

          Instruction Buffer:
            Area = 0.0226323 mm^2
            Peak Dynamic = 0.606827 W
            Subthreshold Leakage = 0.00108112 W
            Subthreshold Leakage with power gating = 0.000499461 W
            Gate Leakage = 6.83558e-05 W
            Runtime Dynamic = 0.0103539 W

          Instruction Decoder:
            Area = 1.85799 mm^2
            Peak Dynamic = 1.37404 W
            Subthreshold Leakage = 0.31529 W
            Subthreshold Leakage with power gating = 0.118234 W
            Gate Leakage = 0.0222493 W
            Runtime Dynamic = 0.0351663 W

      Load Store Unit:
        Area = 8.05439 mm^2
        Peak Dynamic = 1.55841 W
        Subthreshold Leakage = 0.453895 W
        Subthreshold Leakage with power gating = 0.212713 W
        Gate Leakage = 0.0437459 W
        Runtime Dynamic = 0.180544 W

          Data Cache:
            Area = 6.84535 mm^2
            Peak Dynamic = 1.49713 W
            Subthreshold Leakage = 0.375602 W
            Subthreshold Leakage with power gating = 0.178556 W
            Gate Leakage = 0.0279261 W
            Runtime Dynamic = 0.139059 W

          Load/Store Queue:
            Area = 0.322079 mm^2
            Peak Dynamic = 0.0207423 W
            Subthreshold Leakage = 0.0246015 W
            Subthreshold Leakage with power gating = 0.0140229 W
            Gate Leakage = 0.00329971 W
            Runtime Dynamic = 0.0414843 W

      Memory Management Unit:
        Area = 0.559739 mm^2
        Peak Dynamic = 0.667383 W
        Subthreshold Leakage = 0.0942255 W
        Subthreshold Leakage with power gating = 0.0432387 W
        Gate Leakage = 0.0173421 W
        Runtime Dynamic = 0.0131121 W

          Itlb:
            Area = 0.301552 mm^2
            Peak Dynamic = 0.0409491 W
            Subthreshold Leakage = 0.0294516 W
            Subthreshold Leakage with power gating = 0.0167874 W
            Gate Leakage = 0.00393464 W
            Runtime Dynamic = 0.00520119 W

          Dtlb:
            Area = 0.0879726 mm^2
            Peak Dynamic = 0.00736152 W
            Subthreshold Leakage = 0.0110828 W
            Subthreshold Leakage with power gating = 0.00631717 W
            Gate Leakage = 0.00088729 W
            Runtime Dynamic = 0.0079109 W

      Execution Unit:
        Area = 6.14103 mm^2
        Peak Dynamic = 0.0835441 W
        Subthreshold Leakage = 1.25199 W
        Subthreshold Leakage with power gating = 0.469807 W
        Gate Leakage = 0.12351 W
        Runtime Dynamic = 0.0817985 W

          Register Files:
            Area = 0.570804 mm^2
            Peak Dynamic = 0.0105309 W
            Subthreshold Leakage = 0.00721681 W
            Subthreshold Leakage with power gating = 0.00301552 W
            Gate Leakage = 0.000622708 W
            Runtime Dynamic = 0.0122266 W

              Integer RF:
                Area = 0.362673 mm^2
                Peak Dynamic = 0.0105309 W
                Subthreshold Leakage = 0.00437174 W
                Subthreshold Leakage with power gating = 0.00175585 W
                Gate Leakage = 0.00038992 W
                Runtime Dynamic = 0.0107704 W

              Floating Point RF:
                Area = 0.208131 mm^2
                Peak Dynamic = 0 W
                Subthreshold Leakage = 0.00284507 W
                Subthreshold Leakage with power gating = 0.00125967 W
                Gate Leakage = 0.000232788 W
                Runtime Dynamic = 0.00145628 W

          Instruction Scheduler:
            Area = 0 mm^2
            Peak Dynamic = 0 W
            Subthreshold Leakage = 0 W
            Subthreshold Leakage with power gating = -nan W
            Gate Leakage = 0 W
            Runtime Dynamic = 0 W

          Integer ALUs (Count: 6 ):
            Area = 0.47087 mm^2
            Peak Dynamic = 0.0379801 W
            Subthreshold Leakage = 0.286303 W
            Subthreshold Leakage with power gating = 0.107364 W
            Gate Leakage = 0.0265291 W
            Runtime Dynamic = 0.0323109 W

          Floating Point Units (FPUs) (Count: 2 ):
            Area = 4.6585 mm^2
            Peak Dynamic = 0 W
            Subthreshold Leakage = 0.708126 W
            Subthreshold Leakage with power gating = 0.265547 W
            Gate Leakage = 0.0656156 W
            Runtime Dynamic = 0 W

          Complex ALUs (Mul/Div) (Count: 1 ):
            Area = 0.235435 mm^2
            Peak Dynamic = 0 W
            Subthreshold Leakage = 0.143151 W
            Subthreshold Leakage with power gating = 0.0536818 W
            Gate Leakage = 0.0132646 W
            Runtime Dynamic = 0 W

          Results Broadcast Bus:
            Area Overhead = 0.0352036 mm^2
            Peak Dynamic = 0.0145995 W
            Subthreshold Leakage = 0.0535057 W
            Subthreshold Leakage with power gating = 0.0200646 W
            Gate Leakage = 0.00495789 W
            Runtime Dynamic = 0.037261 W

    L2
    Area = 4.53318 mm^2
    Peak Dynamic = 0.0648784 W
    Subthreshold Leakage = 0.593748 W
    Subthreshold Leakage with power gating = 0.285481 W
    Gate Leakage = 0.015464 W
    Runtime Dynamic = 0.0106965 W

*****************************************************************************************
Core:
      Area = 25.6888 mm^2
      Peak Dynamic = 5.36637 W
      Subthreshold Leakage = 3.22341 W
      Subthreshold Leakage with power gating = 1.36419 W
      Gate Leakage = 0.280015 W
      Runtime Dynamic = 0.405662 W

      Instruction Fetch Unit:
        Area = 5.98523 mm^2
        Peak Dynamic = 2.99488 W
        Subthreshold Leakage = 0.703301 W
        Subthreshold Leakage with power gating = 0.305608 W
        Gate Leakage = 0.0682541 W
        Runtime Dynamic = 0.121044 W

          Instruction Cache:
            Area = 3.14635 mm^2
            Peak Dynamic = 0.654523 W
            Subthreshold Leakage = 0.261248 W
            Subthreshold Leakage with power gating = 0.1284 W
            Gate Leakage = 0.029931 W
            Runtime Dynamic = 0.070484 W

          Branch Target Buffer:
            Area = 0.64954 mm^2
            Peak Dynamic = 0.177867 W
            Subthreshold Leakage = 0.057776 W
            Subthreshold Leakage with power gating = 0.030989 W
            Gate Leakage = 0.00272758 W
            Runtime Dynamic = 0.00396722 W

          Branch Predictor:
            Area = 0.138516 mm^2
            Peak Dynamic = 0.0597838 W
            Subthreshold Leakage = 0.014215 W
            Subthreshold Leakage with power gating = 0.0073517 W
            Gate Leakage = 0.000757657 W
            Runtime Dynamic = 0.00135443 W

              Global Predictor:
                Area = 0.0435221 mm^2
                Peak Dynamic = 0.0168831 W
                Subthreshold Leakage = 0.00540773 W
                Subthreshold Leakage with power gating = 0.00279284 W
                Gate Leakage = 0.000278362 W
                Runtime Dynamic = 0.000417827 W

              Local Predictor:
              L1_Local Predictor:
                Area = 0.0257064 mm^2
                Peak Dynamic = 0.0142575 W
                Subthreshold Leakage = 0.00273579 W
                Subthreshold Leakage with power gating = 0.00141387 W
                Gate Leakage = 0.000154548 W
                Runtime Dynamic = 0.000365015 W

              L2_Local Predictor:
                Area = 0.0151917 mm^2
                Peak Dynamic = 0.00527447 W
                Subthreshold Leakage = 0.00129084 W
                Subthreshold Leakage with power gating = 0.000681231 W
                Gate Leakage = 8.00196e-05 W
                Runtime Dynamic = 0.000141898 W

              Chooser:
                Area = 0.0435221 mm^2
                Peak Dynamic = 0.0168831 W
                Subthreshold Leakage = 0.00540773 W
                Subthreshold Leakage with power gating = 0.00279284 W
                Gate Leakage = 0.000278362 W
                Runtime Dynamic = 0.000417827 W

              RAS:
                Area = 0.0105732 mm^2
                Peak Dynamic = 0.0117602 W
                Subthreshold Leakage = 0.000663763 W
                Subthreshold Leakage with power gating = 0.000352154 W
                Gate Leakage = 4.63858e-05 W
                Runtime Dynamic = 0.000153761 W

          Instruction Buffer:
            Area = 0.0226323 mm^2
            Peak Dynamic = 0.606827 W
            Subthreshold Leakage = 0.00108112 W
            Subthreshold Leakage with power gating = 0.000499461 W
            Gate Leakage = 6.83558e-05 W
            Runtime Dynamic = 0.0102898 W

          Instruction Decoder:
            Area = 1.85799 mm^2
            Peak Dynamic = 1.37404 W
            Subthreshold Leakage = 0.31529 W
            Subthreshold Leakage with power gating = 0.118234 W
            Gate Leakage = 0.0222493 W
            Runtime Dynamic = 0.0349489 W

      Load Store Unit:
        Area = 8.05439 mm^2
        Peak Dynamic = 1.55606 W
        Subthreshold Leakage = 0.453895 W
        Subthreshold Leakage with power gating = 0.212713 W
        Gate Leakage = 0.0437459 W
        Runtime Dynamic = 0.179407 W

          Data Cache:
            Area = 6.84535 mm^2
            Peak Dynamic = 1.49522 W
            Subthreshold Leakage = 0.375602 W
            Subthreshold Leakage with power gating = 0.178556 W
            Gate Leakage = 0.0279261 W
            Runtime Dynamic = 0.138226 W

          Load/Store Queue:
            Area = 0.322079 mm^2
            Peak Dynamic = 0.0205904 W
            Subthreshold Leakage = 0.0246015 W
            Subthreshold Leakage with power gating = 0.0140229 W
            Gate Leakage = 0.00329971 W
            Runtime Dynamic = 0.0411809 W

      Memory Management Unit:
        Area = 0.559739 mm^2
        Peak Dynamic = 0.666928 W
        Subthreshold Leakage = 0.0942255 W
        Subthreshold Leakage with power gating = 0.0432387 W
        Gate Leakage = 0.0173421 W
        Runtime Dynamic = 0.0130331 W

          Itlb:
            Area = 0.301552 mm^2
            Peak Dynamic = 0.0406959 W
            Subthreshold Leakage = 0.0294516 W
            Subthreshold Leakage with power gating = 0.0167874 W
            Gate Leakage = 0.00393464 W
            Runtime Dynamic = 0.00517341 W

          Dtlb:
            Area = 0.0879726 mm^2
            Peak Dynamic = 0.00730758 W
            Subthreshold Leakage = 0.0110828 W
            Subthreshold Leakage with power gating = 0.00631717 W
            Gate Leakage = 0.00088729 W
            Runtime Dynamic = 0.00785965 W

      Execution Unit:
        Area = 6.14103 mm^2
        Peak Dynamic = 0.0830299 W
        Subthreshold Leakage = 1.25199 W
        Subthreshold Leakage with power gating = 0.469807 W
        Gate Leakage = 0.12351 W
        Runtime Dynamic = 0.081267 W

          Register Files:
            Area = 0.570804 mm^2
            Peak Dynamic = 0.0104661 W
            Subthreshold Leakage = 0.00721681 W
            Subthreshold Leakage with power gating = 0.00301552 W
            Gate Leakage = 0.000622708 W
            Runtime Dynamic = 0.0121511 W

              Integer RF:
                Area = 0.362673 mm^2
                Peak Dynamic = 0.0104661 W
                Subthreshold Leakage = 0.00437174 W
                Subthreshold Leakage with power gating = 0.00175585 W
                Gate Leakage = 0.00038992 W
                Runtime Dynamic = 0.0107038 W

              Floating Point RF:
                Area = 0.208131 mm^2
                Peak Dynamic = 0 W
                Subthreshold Leakage = 0.00284507 W
                Subthreshold Leakage with power gating = 0.00125967 W
                Gate Leakage = 0.000232788 W
                Runtime Dynamic = 0.00144729 W

          Instruction Scheduler:
            Area = 0 mm^2
            Peak Dynamic = 0 W
            Subthreshold Leakage = 0 W
            Subthreshold Leakage with power gating = -nan W
            Gate Leakage = 0 W
            Runtime Dynamic = 0 W

          Integer ALUs (Count: 6 ):
            Area = 0.47087 mm^2
            Peak Dynamic = 0.0377463 W
            Subthreshold Leakage = 0.286303 W
            Subthreshold Leakage with power gating = 0.107364 W
            Gate Leakage = 0.0265291 W
            Runtime Dynamic = 0.0320991 W

          Floating Point Units (FPUs) (Count: 2 ):
            Area = 4.6585 mm^2
            Peak Dynamic = 0 W
            Subthreshold Leakage = 0.708126 W
            Subthreshold Leakage with power gating = 0.265547 W
            Gate Leakage = 0.0656156 W
            Runtime Dynamic = 0 W

          Complex ALUs (Mul/Div) (Count: 1 ):
            Area = 0.235435 mm^2
            Peak Dynamic = 0 W
            Subthreshold Leakage = 0.143151 W
            Subthreshold Leakage with power gating = 0.0536818 W
            Gate Leakage = 0.0132646 W
            Runtime Dynamic = 0 W

          Results Broadcast Bus:
            Area Overhead = 0.0352036 mm^2
            Peak Dynamic = 0.0145097 W
            Subthreshold Leakage = 0.0535057 W
            Subthreshold Leakage with power gating = 0.0200646 W
            Gate Leakage = 0.00495789 W
            Runtime Dynamic = 0.0370168 W

    L2
    Area = 4.53318 mm^2
    Peak Dynamic = 0.0654739 W
    Subthreshold Leakage = 0.593748 W
    Subthreshold Leakage with power gating = 0.285481 W
    Gate Leakage = 0.015464 W
    Runtime Dynamic = 0.0109105 W

*****************************************************************************************
Core:
      Area = 25.6888 mm^2
      Peak Dynamic = 5.37008 W
      Subthreshold Leakage = 3.22341 W
      Subthreshold Leakage with power gating = 1.36419 W
      Gate Leakage = 0.280015 W
      Runtime Dynamic = 0.405871 W

      Instruction Fetch Unit:
        Area = 5.98523 mm^2
        Peak Dynamic = 2.99728 W
        Subthreshold Leakage = 0.703301 W
        Subthreshold Leakage with power gating = 0.305608 W
        Gate Leakage = 0.0682541 W
        Runtime Dynamic = 0.120965 W

          Instruction Cache:
            Area = 3.14635 mm^2
            Peak Dynamic = 0.656543 W
            Subthreshold Leakage = 0.261248 W
            Subthreshold Leakage with power gating = 0.1284 W
            Gate Leakage = 0.029931 W
            Runtime Dynamic = 0.070253 W

          Branch Target Buffer:
            Area = 0.64954 mm^2
            Peak Dynamic = 0.177867 W
            Subthreshold Leakage = 0.057776 W
            Subthreshold Leakage with power gating = 0.030989 W
            Gate Leakage = 0.00272758 W
            Runtime Dynamic = 0.00397593 W

          Branch Predictor:
            Area = 0.138516 mm^2
            Peak Dynamic = 0.0597838 W
            Subthreshold Leakage = 0.014215 W
            Subthreshold Leakage with power gating = 0.0073517 W
            Gate Leakage = 0.000757657 W
            Runtime Dynamic = 0.00135756 W

              Global Predictor:
                Area = 0.0435221 mm^2
                Peak Dynamic = 0.0168831 W
                Subthreshold Leakage = 0.00540773 W
                Subthreshold Leakage with power gating = 0.00279284 W
                Gate Leakage = 0.000278362 W
                Runtime Dynamic = 0.000418756 W

              Local Predictor:
              L1_Local Predictor:
                Area = 0.0257064 mm^2
                Peak Dynamic = 0.0142575 W
                Subthreshold Leakage = 0.00273579 W
                Subthreshold Leakage with power gating = 0.00141387 W
                Gate Leakage = 0.000154548 W
                Runtime Dynamic = 0.000365829 W

              L2_Local Predictor:
                Area = 0.0151917 mm^2
                Peak Dynamic = 0.00527447 W
                Subthreshold Leakage = 0.00129084 W
                Subthreshold Leakage with power gating = 0.000681231 W
                Gate Leakage = 8.00196e-05 W
                Runtime Dynamic = 0.000142217 W

              Chooser:
                Area = 0.0435221 mm^2
                Peak Dynamic = 0.0168831 W
                Subthreshold Leakage = 0.00540773 W
                Subthreshold Leakage with power gating = 0.00279284 W
                Gate Leakage = 0.000278362 W
                Runtime Dynamic = 0.000418756 W

              RAS:
                Area = 0.0105732 mm^2
                Peak Dynamic = 0.0117602 W
                Subthreshold Leakage = 0.000663763 W
                Subthreshold Leakage with power gating = 0.000352154 W
                Gate Leakage = 4.63858e-05 W
                Runtime Dynamic = 0.000154218 W

          Instruction Buffer:
            Area = 0.0226323 mm^2
            Peak Dynamic = 0.606827 W
            Subthreshold Leakage = 0.00108112 W
            Subthreshold Leakage with power gating = 0.000499461 W
            Gate Leakage = 6.83558e-05 W
            Runtime Dynamic = 0.0103216 W

          Instruction Decoder:
            Area = 1.85799 mm^2
            Peak Dynamic = 1.37404 W
            Subthreshold Leakage = 0.31529 W
            Subthreshold Leakage with power gating = 0.118234 W
            Gate Leakage = 0.0222493 W
            Runtime Dynamic = 0.0350568 W

      Load Store Unit:
        Area = 8.05439 mm^2
        Peak Dynamic = 1.55709 W
        Subthreshold Leakage = 0.453895 W
        Subthreshold Leakage with power gating = 0.212713 W
        Gate Leakage = 0.0437459 W
        Runtime Dynamic = 0.179718 W

          Data Cache:
            Area = 6.84535 mm^2
            Peak Dynamic = 1.49606 W
            Subthreshold Leakage = 0.375602 W
            Subthreshold Leakage with power gating = 0.178556 W
            Gate Leakage = 0.0279261 W
            Runtime Dynamic = 0.138404 W

          Load/Store Queue:
            Area = 0.322079 mm^2
            Peak Dynamic = 0.0206571 W
            Subthreshold Leakage = 0.0246015 W
            Subthreshold Leakage with power gating = 0.0140229 W
            Gate Leakage = 0.00329971 W
            Runtime Dynamic = 0.0413141 W

      Memory Management Unit:
        Area = 0.559739 mm^2
        Peak Dynamic = 0.667142 W
        Subthreshold Leakage = 0.0942255 W
        Subthreshold Leakage with power gating = 0.0432387 W
        Gate Leakage = 0.0173421 W
        Runtime Dynamic = 0.0130708 W

          Itlb:
            Area = 0.301552 mm^2
            Peak Dynamic = 0.0408215 W
            Subthreshold Leakage = 0.0294516 W
            Subthreshold Leakage with power gating = 0.0167874 W
            Gate Leakage = 0.00393464 W
            Runtime Dynamic = 0.00518694 W

          Dtlb:
            Area = 0.0879726 mm^2
            Peak Dynamic = 0.00733129 W
            Subthreshold Leakage = 0.0110828 W
            Subthreshold Leakage with power gating = 0.00631717 W
            Gate Leakage = 0.00088729 W
            Runtime Dynamic = 0.00788382 W

      Execution Unit:
        Area = 6.14103 mm^2
        Peak Dynamic = 0.0832845 W
        Subthreshold Leakage = 1.25199 W
        Subthreshold Leakage with power gating = 0.469807 W
        Gate Leakage = 0.12351 W
        Runtime Dynamic = 0.081525 W

          Register Files:
            Area = 0.570804 mm^2
            Peak Dynamic = 0.0104982 W
            Subthreshold Leakage = 0.00721681 W
            Subthreshold Leakage with power gating = 0.00301552 W
            Gate Leakage = 0.000622708 W
            Runtime Dynamic = 0.0121885 W

              Integer RF:
                Area = 0.362673 mm^2
                Peak Dynamic = 0.0104982 W
                Subthreshold Leakage = 0.00437174 W
                Subthreshold Leakage with power gating = 0.00175585 W
                Gate Leakage = 0.00038992 W
                Runtime Dynamic = 0.0107368 W

              Floating Point RF:
                Area = 0.208131 mm^2
                Peak Dynamic = 0 W
                Subthreshold Leakage = 0.00284507 W
                Subthreshold Leakage with power gating = 0.00125967 W
                Gate Leakage = 0.000232788 W
                Runtime Dynamic = 0.00145175 W

          Instruction Scheduler:
            Area = 0 mm^2
            Peak Dynamic = 0 W
            Subthreshold Leakage = 0 W
            Subthreshold Leakage with power gating = -nan W
            Gate Leakage = 0 W
            Runtime Dynamic = 0 W

          Integer ALUs (Count: 6 ):
            Area = 0.47087 mm^2
            Peak Dynamic = 0.0378621 W
            Subthreshold Leakage = 0.286303 W
            Subthreshold Leakage with power gating = 0.107364 W
            Gate Leakage = 0.0265291 W
            Runtime Dynamic = 0.0322016 W

          Floating Point Units (FPUs) (Count: 2 ):
            Area = 4.6585 mm^2
            Peak Dynamic = 0 W
            Subthreshold Leakage = 0.708126 W
            Subthreshold Leakage with power gating = 0.265547 W
            Gate Leakage = 0.0656156 W
            Runtime Dynamic = 0 W

          Complex ALUs (Mul/Div) (Count: 1 ):
            Area = 0.235435 mm^2
            Peak Dynamic = 0 W
            Subthreshold Leakage = 0.143151 W
            Subthreshold Leakage with power gating = 0.0536818 W
            Gate Leakage = 0.0132646 W
            Runtime Dynamic = 0 W

          Results Broadcast Bus:
            Area Overhead = 0.0352036 mm^2
            Peak Dynamic = 0.0145542 W
            Subthreshold Leakage = 0.0535057 W
            Subthreshold Leakage with power gating = 0.0200646 W
            Gate Leakage = 0.00495789 W
            Runtime Dynamic = 0.0371349 W

    L2
    Area = 4.53318 mm^2
    Peak Dynamic = 0.0652805 W
    Subthreshold Leakage = 0.593748 W
    Subthreshold Leakage with power gating = 0.285481 W
    Gate Leakage = 0.015464 W
    Runtime Dynamic = 0.0105926 W

*****************************************************************************************
Core:
      Area = 25.6888 mm^2
      Peak Dynamic = 5.38191 W
      Subthreshold Leakage = 3.22341 W
      Subthreshold Leakage with power gating = 1.36419 W
      Gate Leakage = 0.280015 W
      Runtime Dynamic = 0.408243 W

      Instruction Fetch Unit:
        Area = 5.98523 mm^2
        Peak Dynamic = 3.00471 W
        Subthreshold Leakage = 0.703301 W
        Subthreshold Leakage with power gating = 0.305608 W
        Gate Leakage = 0.0682541 W
        Runtime Dynamic = 0.120916 W

          Instruction Cache:
            Area = 3.14635 mm^2
            Peak Dynamic = 0.662809 W
            Subthreshold Leakage = 0.261248 W
            Subthreshold Leakage with power gating = 0.1284 W
            Gate Leakage = 0.029931 W
            Runtime Dynamic = 0.0697327 W

          Branch Target Buffer:
            Area = 0.64954 mm^2
            Peak Dynamic = 0.177867 W
            Subthreshold Leakage = 0.057776 W
            Subthreshold Leakage with power gating = 0.030989 W
            Gate Leakage = 0.00272758 W
            Runtime Dynamic = 0.00400396 W

          Branch Predictor:
            Area = 0.138516 mm^2
            Peak Dynamic = 0.0597838 W
            Subthreshold Leakage = 0.014215 W
            Subthreshold Leakage with power gating = 0.0073517 W
            Gate Leakage = 0.000757657 W
            Runtime Dynamic = 0.00136741 W

              Global Predictor:
                Area = 0.0435221 mm^2
                Peak Dynamic = 0.0168831 W
                Subthreshold Leakage = 0.00540773 W
                Subthreshold Leakage with power gating = 0.00279284 W
                Gate Leakage = 0.000278362 W
                Runtime Dynamic = 0.000421672 W

              Local Predictor:
              L1_Local Predictor:
                Area = 0.0257064 mm^2
                Peak Dynamic = 0.0142575 W
                Subthreshold Leakage = 0.00273579 W
                Subthreshold Leakage with power gating = 0.00141387 W
                Gate Leakage = 0.000154548 W
                Runtime Dynamic = 0.000368367 W

              L2_Local Predictor:
                Area = 0.0151917 mm^2
                Peak Dynamic = 0.00527447 W
                Subthreshold Leakage = 0.00129084 W
                Subthreshold Leakage with power gating = 0.000681231 W
                Gate Leakage = 8.00196e-05 W
                Runtime Dynamic = 0.000143198 W

              Chooser:
                Area = 0.0435221 mm^2
                Peak Dynamic = 0.0168831 W
                Subthreshold Leakage = 0.00540773 W
                Subthreshold Leakage with power gating = 0.00279284 W
                Gate Leakage = 0.000278362 W
                Runtime Dynamic = 0.000421672 W

              RAS:
                Area = 0.0105732 mm^2
                Peak Dynamic = 0.0117602 W
                Subthreshold Leakage = 0.000663763 W
                Subthreshold Leakage with power gating = 0.000352154 W
                Gate Leakage = 4.63858e-05 W
                Runtime Dynamic = 0.000155699 W

          Instruction Buffer:
            Area = 0.0226323 mm^2
            Peak Dynamic = 0.606827 W
            Subthreshold Leakage = 0.00108112 W
            Subthreshold Leakage with power gating = 0.000499461 W
            Gate Leakage = 6.83558e-05 W
            Runtime Dynamic = 0.0104201 W

          Instruction Decoder:
            Area = 1.85799 mm^2
            Peak Dynamic = 1.37404 W
            Subthreshold Leakage = 0.31529 W
            Subthreshold Leakage with power gating = 0.118234 W
            Gate Leakage = 0.0222493 W
            Runtime Dynamic = 0.0353915 W

      Load Store Unit:
        Area = 8.05439 mm^2
        Peak Dynamic = 1.56081 W
        Subthreshold Leakage = 0.453895 W
        Subthreshold Leakage with power gating = 0.212713 W
        Gate Leakage = 0.0437459 W
        Runtime Dynamic = 0.181381 W

          Data Cache:
            Area = 6.84535 mm^2
            Peak Dynamic = 1.49907 W
[...]
                Subthreshold Leakage with power gating = 0.00125967 W
                Gate Leakage = 0.000232788 W
                Runtime Dynamic = 0.00146561 W

          Instruction Scheduler:
            Area = 0 mm^2
            Peak Dynamic = 0 W
            Subthreshold Leakage = 0 W
            Subthreshold Leakage with power gating = -nan W
            Gate Leakage = 0 W
            Runtime Dynamic = 0 W

          Integer ALUs (Count: 6 ):
            Area = 0.47087 mm^2
            Peak Dynamic = 0.0382249 W
            Subthreshold Leakage = 0.286303 W
            Subthreshold Leakage with power gating = 0.107364 W
            Gate Leakage = 0.0265291 W
            Runtime Dynamic = 0.0325309 W

          Floating Point Units (FPUs) (Count: 2 ):
            Area = 4.6585 mm^2
            Peak Dynamic = 0 W
            Subthreshold Leakage = 0.708126 W
            Subthreshold Leakage with power gating = 0.265547 W
            Gate Leakage = 0.0656156 W
            Runtime Dynamic = 0 W

          Complex ALUs (Mul/Div) (Count: 1 ):
            Area = 0.235435 mm^2
            Peak Dynamic = 0 W
            Subthreshold Leakage = 0.143151 W
            Subthreshold Leakage with power gating = 0.0536818 W
            Gate Leakage = 0.0132646 W
            Runtime Dynamic = 0 W

          Results Broadcast Bus:
            Area Overhead = 0.0352036 mm^2
            Peak Dynamic = 0.0146937 W
            Subthreshold Leakage = 0.0535057 W
            Subthreshold Leakage with power gating = 0.0200646 W
            Gate Leakage = 0.00495789 W
            Runtime Dynamic = 0.0375147 W

    L2
    Area = 4.53318 mm^2
    Peak Dynamic = 0.064456 W
    Subthreshold Leakage = 0.593748 W
    Subthreshold Leakage with power gating = 0.285481 W
    Gate Leakage = 0.015464 W
    Runtime Dynamic = 0.0104008 W

*****************************************************************************************
Core:
      Area = 25.6888 mm^2
      Peak Dynamic = 5.35258 W
      Subthreshold Leakage = 3.22341 W
      Subthreshold Leakage with power gating = 1.36419 W
      Gate Leakage = 0.280015 W
      Runtime Dynamic = 0.398827 W

      Instruction Fetch Unit:
        Area = 5.98523 mm^2
        Peak Dynamic = 2.98856 W
        Subthreshold Leakage = 0.703301 W
        Subthreshold Leakage with power gating = 0.305608 W
        Gate Leakage = 0.0682541 W
        Runtime Dynamic = 0.117871 W

          Instruction Cache:
            Area = 3.14635 mm^2
            Peak Dynamic = 0.64919 W
            Subthreshold Leakage = 0.261248 W
            Subthreshold Leakage with power gating = 0.1284 W
            Gate Leakage = 0.029931 W
            Runtime Dynamic = 0.0677111 W

          Branch Target Buffer:
            Area = 0.64954 mm^2
            Peak Dynamic = 0.177867 W
            Subthreshold Leakage = 0.057776 W
            Subthreshold Leakage with power gating = 0.030989 W
            Gate Leakage = 0.00272758 W
            Runtime Dynamic = 0.00394378 W

          Branch Predictor:
            Area = 0.138516 mm^2
            Peak Dynamic = 0.0597838 W
            Subthreshold Leakage = 0.014215 W
            Subthreshold Leakage with power gating = 0.0073517 W
            Gate Leakage = 0.000757657 W
            Runtime Dynamic = 0.00134607 W

              Global Predictor:
                Area = 0.0435221 mm^2
                Peak Dynamic = 0.0168831 W
                Subthreshold Leakage = 0.00540773 W
                Subthreshold Leakage with power gating = 0.00279284 W
                Gate Leakage = 0.000278362 W
                Runtime Dynamic = 0.000415357 W

              Local Predictor:
              L1_Local Predictor:
                Area = 0.0257064 mm^2
                Peak Dynamic = 0.0142575 W
                Subthreshold Leakage = 0.00273579 W
                Subthreshold Leakage with power gating = 0.00141387 W
                Gate Leakage = 0.000154548 W
                Runtime Dynamic = 0.000362856 W

              L2_Local Predictor:
                Area = 0.0151917 mm^2
                Peak Dynamic = 0.00527447 W
                Subthreshold Leakage = 0.00129084 W
                Subthreshold Leakage with power gating = 0.000681231 W
                Gate Leakage = 8.00196e-05 W
                Runtime Dynamic = 0.000141059 W

              Chooser:
                Area = 0.0435221 mm^2
                Peak Dynamic = 0.0168831 W
                Subthreshold Leakage = 0.00540773 W
                Subthreshold Leakage with power gating = 0.00279284 W
                Gate Leakage = 0.000278362 W
                Runtime Dynamic = 0.000415357 W

              RAS:
                Area = 0.0105732 mm^2
                Peak Dynamic = 0.0117602 W
                Subthreshold Leakage = 0.000663763 W
                Subthreshold Leakage with power gating = 0.000352154 W
                Gate Leakage = 4.63858e-05 W
                Runtime Dynamic = 0.000152496 W

          Instruction Buffer:
            Area = 0.0226323 mm^2
            Peak Dynamic = 0.606827 W
            Subthreshold Leakage = 0.00108112 W
            Subthreshold Leakage with power gating = 0.000499461 W
            Gate Leakage = 6.83558e-05 W
            Runtime Dynamic = 0.010206 W

          Instruction Decoder:
            Area = 1.85799 mm^2
            Peak Dynamic = 1.37404 W
            Subthreshold Leakage = 0.31529 W
            Subthreshold Leakage with power gating = 0.118234 W
            Gate Leakage = 0.0222493 W
            Runtime Dynamic = 0.0346641 W

      Load Store Unit:
        Area = 8.05439 mm^2
        Peak Dynamic = 1.55326 W
        Subthreshold Leakage = 0.453895 W
        Subthreshold Leakage with power gating = 0.212713 W
        Gate Leakage = 0.0437459 W
        Runtime Dynamic = 0.17735 W

          Data Cache:
            Area = 6.84535 mm^2
            Peak Dynamic = 1.49296 W
            Subthreshold Leakage = 0.375602 W
            Subthreshold Leakage with power gating = 0.178556 W
            Gate Leakage = 0.0279261 W
            Runtime Dynamic = 0.136531 W

          Load/Store Queue:
            Area = 0.322079 mm^2
            Peak Dynamic = 0.0204096 W
            Subthreshold Leakage = 0.0246015 W
            Subthreshold Leakage with power gating = 0.0140229 W
            Gate Leakage = 0.00329971 W
            Runtime Dynamic = 0.0408186 W

      Memory Management Unit:
        Area = 0.559739 mm^2
        Peak Dynamic = 0.666355 W
        Subthreshold Leakage = 0.0942255 W
        Subthreshold Leakage with power gating = 0.0432387 W
        Gate Leakage = 0.0173421 W
        Runtime Dynamic = 0.0129117 W

          Itlb:
            Area = 0.301552 mm^2
            Peak Dynamic = 0.0403643 W
            Subthreshold Leakage = 0.0294516 W
            Subthreshold Leakage with power gating = 0.0167874 W
            Gate Leakage = 0.00393464 W
            Runtime Dynamic = 0.00513922 W

          Dtlb:
            Area = 0.0879726 mm^2
            Peak Dynamic = 0.00724343 W
            Subthreshold Leakage = 0.0110828 W
            Subthreshold Leakage with power gating = 0.00631717 W
            Gate Leakage = 0.00088729 W
            Runtime Dynamic = 0.00777249 W

      Execution Unit:
        Area = 6.14103 mm^2
        Peak Dynamic = 0.0823542 W
        Subthreshold Leakage = 1.25199 W
        Subthreshold Leakage with power gating = 0.469807 W
        Gate Leakage = 0.12351 W
        Runtime Dynamic = 0.0805662 W

          Register Files:
            Area = 0.570804 mm^2
            Peak Dynamic = 0.0103809 W
            Subthreshold Leakage = 0.00721681 W
            Subthreshold Leakage with power gating = 0.00301552 W
            Gate Leakage = 0.000622708 W
            Runtime Dynamic = 0.012052 W

              Integer RF:
                Area = 0.362673 mm^2
                Peak Dynamic = 0.0103809 W
                Subthreshold Leakage = 0.00437174 W
                Subthreshold Leakage with power gating = 0.00175585 W
                Gate Leakage = 0.00038992 W
                Runtime Dynamic = 0.0106165 W

              Floating Point RF:
                Area = 0.208131 mm^2
                Peak Dynamic = 0 W
                Subthreshold Leakage = 0.00284507 W
                Subthreshold Leakage with power gating = 0.00125967 W
                Gate Leakage = 0.000232788 W
                Runtime Dynamic = 0.00143551 W

          Instruction Scheduler:
            Area = 0 mm^2
            Peak Dynamic = 0 W
            Subthreshold Leakage = 0 W
            Subthreshold Leakage with power gating = -nan W
            Gate Leakage = 0 W
            Runtime Dynamic = 0 W

          Integer ALUs (Count: 6 ):
            Area = 0.47087 mm^2
            Peak Dynamic = 0.0374392 W
            Subthreshold Leakage = 0.286303 W
            Subthreshold Leakage with power gating = 0.107364 W
            Gate Leakage = 0.0265291 W
            Runtime Dynamic = 0.0318197 W

          Floating Point Units (FPUs) (Count: 2 ):
            Area = 4.6585 mm^2
            Peak Dynamic = 0 W
            Subthreshold Leakage = 0.708126 W
            Subthreshold Leakage with power gating = 0.265547 W
            Gate Leakage = 0.0656156 W
            Runtime Dynamic = 0 W

          Complex ALUs (Mul/Div) (Count: 1 ):
            Area = 0.235435 mm^2
            Peak Dynamic = 0 W
            Subthreshold Leakage = 0.143151 W
            Subthreshold Leakage with power gating = 0.0536818 W
            Gate Leakage = 0.0132646 W
            Runtime Dynamic = 0 W

          Results Broadcast Bus:
            Area Overhead = 0.0352036 mm^2
            Peak Dynamic = 0.0143916 W
            Subthreshold Leakage = 0.0535057 W
            Subthreshold Leakage with power gating = 0.0200646 W
            Gate Leakage = 0.00495789 W
            Runtime Dynamic = 0.0366945 W

    L2
    Area = 4.53318 mm^2
    Peak Dynamic = 0.0620589 W
    Subthreshold Leakage = 0.593748 W
    Subthreshold Leakage with power gating = 0.285481 W
    Gate Leakage = 0.015464 W
    Runtime Dynamic = 0.0101282 W

*****************************************************************************************
Core:
      Area = 25.6888 mm^2
      Peak Dynamic = 5.36751 W
      Subthreshold Leakage = 3.22341 W
      Subthreshold Leakage with power gating = 1.36419 W
      Gate Leakage = 0.280015 W
      Runtime Dynamic = 0.404805 W

      Instruction Fetch Unit:
        Area = 5.98523 mm^2
        Peak Dynamic = 2.99631 W
        Subthreshold Leakage = 0.703301 W
        Subthreshold Leakage with power gating = 0.305608 W
        Gate Leakage = 0.0682541 W
        Runtime Dynamic = 0.119876 W

          Instruction Cache:
            Area = 3.14635 mm^2
            Peak Dynamic = 0.655726 W
            Subthreshold Leakage = 0.261248 W
            Subthreshold Leakage with power gating = 0.1284 W
            Gate Leakage = 0.029931 W
            Runtime Dynamic = 0.0692256 W

          Branch Target Buffer:
            Area = 0.64954 mm^2
            Peak Dynamic = 0.177867 W
            Subthreshold Leakage = 0.057776 W
            Subthreshold Leakage with power gating = 0.030989 W
            Gate Leakage = 0.00272758 W
            Runtime Dynamic = 0.00397213 W

          Branch Predictor:
            Area = 0.138516 mm^2
            Peak Dynamic = 0.0597838 W
            Subthreshold Leakage = 0.014215 W
            Subthreshold Leakage with power gating = 0.0073517 W
            Gate Leakage = 0.000757657 W
            Runtime Dynamic = 0.00135613 W

              Global Predictor:
                Area = 0.0435221 mm^2
                Peak Dynamic = 0.0168831 W
                Subthreshold Leakage = 0.00540773 W
                Subthreshold Leakage with power gating = 0.00279284 W
                Gate Leakage = 0.000278362 W
                Runtime Dynamic = 0.000418326 W

              Local Predictor:
              L1_Local Predictor:
                Area = 0.0257064 mm^2
                Peak Dynamic = 0.0142575 W
                Subthreshold Leakage = 0.00273579 W
                Subthreshold Leakage with power gating = 0.00141387 W
                Gate Leakage = 0.000154548 W
                Runtime Dynamic = 0.000365446 W

              L2_Local Predictor:
                Area = 0.0151917 mm^2
                Peak Dynamic = 0.00527447 W
                Subthreshold Leakage = 0.00129084 W
                Subthreshold Leakage with power gating = 0.000681231 W
                Gate Leakage = 8.00196e-05 W
                Runtime Dynamic = 0.000142063 W

              Chooser:
                Area = 0.0435221 mm^2
                Peak Dynamic = 0.0168831 W
                Subthreshold Leakage = 0.00540773 W
                Subthreshold Leakage with power gating = 0.00279284 W
                Gate Leakage = 0.000278362 W
                Runtime Dynamic = 0.000418326 W

              RAS:
                Area = 0.0105732 mm^2
                Peak Dynamic = 0.0117602 W
                Subthreshold Leakage = 0.000663763 W
                Subthreshold Leakage with power gating = 0.000352154 W
                Gate Leakage = 4.63858e-05 W
                Runtime Dynamic = 0.00015403 W

          Instruction Buffer:
            Area = 0.0226323 mm^2
            Peak Dynamic = 0.606827 W
            Subthreshold Leakage = 0.00108112 W
            Subthreshold Leakage with power gating = 0.000499461 W
            Gate Leakage = 6.83558e-05 W
            Runtime Dynamic = 0.0103087 W

          Instruction Decoder:
            Area = 1.85799 mm^2
            Peak Dynamic = 1.37404 W
            Subthreshold Leakage = 0.31529 W
            Subthreshold Leakage with power gating = 0.118234 W
            Gate Leakage = 0.0222493 W
            Runtime Dynamic = 0.0350131 W

      Load Store Unit:
        Area = 8.05439 mm^2
        Peak Dynamic = 1.5568 W
        Subthreshold Leakage = 0.453895 W
        Subthreshold Leakage with power gating = 0.212713 W
        Gate Leakage = 0.0437459 W
        Runtime Dynamic = 0.179803 W

          Data Cache:
            Area = 6.84535 mm^2
            Peak Dynamic = 1.49582 W
            Subthreshold Leakage = 0.375602 W
            Subthreshold Leakage with power gating = 0.178556 W
            Gate Leakage = 0.0279261 W
            Runtime Dynamic = 0.138528 W

          Load/Store Queue:
            Area = 0.322079 mm^2
            Peak Dynamic = 0.0206381 W
            Subthreshold Leakage = 0.0246015 W
            Subthreshold Leakage with power gating = 0.0140229 W
            Gate Leakage = 0.00329971 W
            Runtime Dynamic = 0.0412759 W

      Memory Management Unit:
        Area = 0.559739 mm^2
        Peak Dynamic = 0.667066 W
        Subthreshold Leakage = 0.0942255 W
        Subthreshold Leakage with power gating = 0.0432387 W
        Gate Leakage = 0.0173421 W
        Runtime Dynamic = 0.0130509 W

          Itlb:
            Area = 0.301552 mm^2
            Peak Dynamic = 0.0407707 W
            Subthreshold Leakage = 0.0294516 W
            Subthreshold Leakage with power gating = 0.0167874 W
            Gate Leakage = 0.00393464 W
            Runtime Dynamic = 0.00517982 W

          Dtlb:
            Area = 0.0879726 mm^2
            Peak Dynamic = 0.00732455 W
            Subthreshold Leakage = 0.0110828 W
            Subthreshold Leakage with power gating = 0.00631717 W
            Gate Leakage = 0.00088729 W
            Runtime Dynamic = 0.00787106 W

      Execution Unit:
        Area = 6.14103 mm^2
        Peak Dynamic = 0.0831817 W
        Subthreshold Leakage = 1.25199 W
        Subthreshold Leakage with power gating = 0.469807 W
        Gate Leakage = 0.12351 W
        Runtime Dynamic = 0.0814152 W

          Register Files:
            Area = 0.570804 mm^2
            Peak Dynamic = 0.0104852 W
            Subthreshold Leakage = 0.00721681 W
            Subthreshold Leakage with power gating = 0.00301552 W
            Gate Leakage = 0.000622708 W
            Runtime Dynamic = 0.0121734 W

              Integer RF:
                Area = 0.362673 mm^2
                Peak Dynamic = 0.0104852 W
                Subthreshold Leakage = 0.00437174 W
                Subthreshold Leakage with power gating = 0.00175585 W
                Gate Leakage = 0.00038992 W
                Runtime Dynamic = 0.0107234 W

              Floating Point RF:
                Area = 0.208131 mm^2
                Peak Dynamic = 0 W
                Subthreshold Leakage = 0.00284507 W
                Subthreshold Leakage with power gating = 0.00125967 W
                Gate Leakage = 0.000232788 W
                Runtime Dynamic = 0.00144993 W

          Instruction Scheduler:
            Area = 0 mm^2
            Peak Dynamic = 0 W
            Subthreshold Leakage = 0 W
            Subthreshold Leakage with power gating = -nan W
            Gate Leakage = 0 W
            Runtime Dynamic = 0 W

          Integer ALUs (Count: 6 ):
            Area = 0.47087 mm^2
            Peak Dynamic = 0.0378153 W
            Subthreshold Leakage = 0.286303 W
            Subthreshold Leakage with power gating = 0.107364 W
            Gate Leakage = 0.0265291 W
            Runtime Dynamic = 0.0321576 W

          Floating Point Units (FPUs) (Count: 2 ):
            Area = 4.6585 mm^2
            Peak Dynamic = 0 W
            Subthreshold Leakage = 0.708126 W
            Subthreshold Leakage with power gating = 0.265547 W
            Gate Leakage = 0.0656156 W
            Runtime Dynamic = 0 W

          Complex ALUs (Mul/Div) (Count: 1 ):
            Area = 0.235435 mm^2
            Peak Dynamic = 0 W
            Subthreshold Leakage = 0.143151 W
            Subthreshold Leakage with power gating = 0.0536818 W
            Gate Leakage = 0.0132646 W
            Runtime Dynamic = 0 W

          Results Broadcast Bus:
            Area Overhead = 0.0352036 mm^2
            Peak Dynamic = 0.0145362 W
            Subthreshold Leakage = 0.0535057 W
            Subthreshold Leakage with power gating = 0.0200646 W
            Gate Leakage = 0.00495789 W
            Runtime Dynamic = 0.0370842 W

    L2
    Area = 4.53318 mm^2
    Peak Dynamic = 0.0641557 W
    Subthreshold Leakage = 0.593748 W
    Subthreshold Leakage with power gating = 0.285481 W
    Gate Leakage = 0.015464 W
    Runtime Dynamic = 0.0106599 W

*****************************************************************************************
      L3
      Area = 61.9075 mm^2
      Peak Dynamic = 0.430774 W
      Subthreshold Leakage = 6.80085 W
      Subthreshold Leakage with power gating = 3.32364 W
      Gate Leakage = 0.0484137 W
      Runtime Dynamic = 0.230897 W

*****************************************************************************************
      L3
      Area = 61.9075 mm^2
      Peak Dynamic = 0.451641 W
      Subthreshold Leakage = 6.80085 W
      Subthreshold Leakage with power gating = 3.32364 W
      Gate Leakage = 0.0484137 W
      Runtime Dynamic = 0.245592 W

*****************************************************************************************
      L3
      Area = 61.9075 mm^2
      Peak Dynamic = 0.449572 W
      Subthreshold Leakage = 6.80085 W
      Subthreshold Leakage with power gating = 3.32364 W
      Gate Leakage = 0.0484137 W
      Runtime Dynamic = 0.244702 W

*****************************************************************************************
BUSES
      Area = 4.19738 mm^2
      Peak Dynamic = 0 W
      Subthreshold Leakage = 0.117422 W
      Subthreshold Leakage with power gating = 0.0440332 W
      Gate Leakage = 0.0112604 W
      Runtime Dynamic = 0 W

      Bus: 
        Area = 4.19738 mm^2
        Peak Dynamic = 0 W
        Subthreshold Leakage = 0.117422 W
        Subthreshold Leakage with power gating = 0.0440332 W
        Gate Leakage = 0.0112604 W
        Runtime Dynamic = 0 W

*****************************************************************************************
