McPAT (version 1.0 of Aug, 2013) is computing the target processor...
 

McPAT (version 1.0 of Aug, 2013) results  (current print level is 5)
*****************************************************************************************
  Technology 45 nm
  Using Long Channel Devices When Appropriate
  Interconnect metal projection= aggressive interconnect technology projection
  Core clock Rate(MHz) 2660

*****************************************************************************************
Processor: 
  Area = 140.111 mm^2
  Peak Power = 36.0744 W
  Total Leakage = 17.4243 W
  Peak Dynamic = 18.6502 W
  Subthreshold Leakage = 16.5301 W
  Subthreshold Leakage with power gating = 7.54908 W
  Gate Leakage = 0.894119 W
  Runtime Dynamic = 1.837 W

  Total Cores: 3 cores 
  Device Type= ITRS high performance device type
    Area = 77.0665 mm^2
    Peak Dynamic = 18.5228 W
    Subthreshold Leakage = 9.67024 W
    Subthreshold Leakage with power gating = 4.09258 W
    Gate Leakage = 0.840044 W
    Runtime Dynamic = 1.79976 W

  Total L3s: 
  Device Type= ITRS high performance device type
    Area = 61.9075 mm^2
    Peak Dynamic = 0.127393 W
    Subthreshold Leakage = 6.80085 W
    Subthreshold Leakage with power gating = 3.32364 W
    Gate Leakage = 0.0484137 W
    Runtime Dynamic = 0.0372385 W

  Total NoCs (Network/Bus): 
  Device Type= ITRS high performance device type
    Area = 1.13708 mm^2
    Peak Dynamic = 0 W
    Subthreshold Leakage = 0.0590355 W
    Subthreshold Leakage with power gating = 0.0221383 W
    Gate Leakage = 0.0056613 W
    Runtime Dynamic = 0 W

*****************************************************************************************
Core:
      Area = 25.6888 mm^2
      Peak Dynamic = 6.17457 W
      Subthreshold Leakage = 3.22341 W
      Subthreshold Leakage with power gating = 1.36419 W
      Gate Leakage = 0.280015 W
      Runtime Dynamic = 0.600452 W

      Instruction Fetch Unit:
        Area = 5.98523 mm^2
        Peak Dynamic = 3.52191 W
        Subthreshold Leakage = 0.703301 W
        Subthreshold Leakage with power gating = 0.305608 W
        Gate Leakage = 0.0682541 W
        Runtime Dynamic = 0.151262 W

          Instruction Cache:
            Area = 3.14635 mm^2
            Peak Dynamic = 1.09883 W
            Subthreshold Leakage = 0.261248 W
            Subthreshold Leakage with power gating = 0.1284 W
            Gate Leakage = 0.029931 W
            Runtime Dynamic = 0.0664069 W

          Branch Target Buffer:
            Area = 0.64954 mm^2
            Peak Dynamic = 0.177867 W
            Subthreshold Leakage = 0.057776 W
            Subthreshold Leakage with power gating = 0.030989 W
            Gate Leakage = 0.00272758 W
            Runtime Dynamic = 0.00663549 W

          Branch Predictor:
            Area = 0.138516 mm^2
            Peak Dynamic = 0.0597838 W
            Subthreshold Leakage = 0.014215 W
            Subthreshold Leakage with power gating = 0.0073517 W
            Gate Leakage = 0.000757657 W
            Runtime Dynamic = 0.00227147 W

              Global Predictor:
                Area = 0.0435221 mm^2
                Peak Dynamic = 0.0168831 W
                Subthreshold Leakage = 0.00540773 W
                Subthreshold Leakage with power gating = 0.00279284 W
                Gate Leakage = 0.000278362 W
                Runtime Dynamic = 0.00070049 W

              Local Predictor:
              L1_Local Predictor:
                Area = 0.0257064 mm^2
                Peak Dynamic = 0.0142575 W
                Subthreshold Leakage = 0.00273579 W
                Subthreshold Leakage with power gating = 0.00141387 W
                Gate Leakage = 0.000154548 W
                Runtime Dynamic = 0.000612386 W

              L2_Local Predictor:
                Area = 0.0151917 mm^2
                Peak Dynamic = 0.00527447 W
                Subthreshold Leakage = 0.00129084 W
                Subthreshold Leakage with power gating = 0.000681231 W
                Gate Leakage = 8.00196e-05 W
                Runtime Dynamic = 0.000238301 W

              Chooser:
                Area = 0.0435221 mm^2
                Peak Dynamic = 0.0168831 W
                Subthreshold Leakage = 0.00540773 W
                Subthreshold Leakage with power gating = 0.00279284 W
                Gate Leakage = 0.000278362 W
                Runtime Dynamic = 0.00070049 W

              RAS:
                Area = 0.0105732 mm^2
                Peak Dynamic = 0.0117602 W
                Subthreshold Leakage = 0.000663763 W
                Subthreshold Leakage with power gating = 0.000352154 W
                Gate Leakage = 4.63858e-05 W
                Runtime Dynamic = 0.000258103 W

          Instruction Buffer:
            Area = 0.0226323 mm^2
            Peak Dynamic = 0.606827 W
            Subthreshold Leakage = 0.00108112 W
            Subthreshold Leakage with power gating = 0.000499461 W
            Gate Leakage = 6.83558e-05 W
            Runtime Dynamic = 0.0172749 W

          Instruction Decoder:
            Area = 1.85799 mm^2
            Peak Dynamic = 1.37404 W
            Subthreshold Leakage = 0.31529 W
            Subthreshold Leakage with power gating = 0.118234 W
            Gate Leakage = 0.0222493 W
            Runtime Dynamic = 0.0586735 W

      Load Store Unit:
        Area = 8.05439 mm^2
        Peak Dynamic = 1.77358 W
        Subthreshold Leakage = 0.453895 W
        Subthreshold Leakage with power gating = 0.212713 W
        Gate Leakage = 0.0437459 W
        Runtime Dynamic = 0.2854 W

          Data Cache:
            Area = 6.84535 mm^2
            Peak Dynamic = 1.67125 W
            Subthreshold Leakage = 0.375602 W
            Subthreshold Leakage with power gating = 0.178556 W
            Gate Leakage = 0.0279261 W
            Runtime Dynamic = 0.216134 W

          Load/Store Queue:
            Area = 0.322079 mm^2
            Peak Dynamic = 0.0346332 W
            Subthreshold Leakage = 0.0246015 W
            Subthreshold Leakage with power gating = 0.0140229 W
            Gate Leakage = 0.00329971 W
            Runtime Dynamic = 0.0692663 W

      Memory Management Unit:
        Area = 0.559739 mm^2
        Peak Dynamic = 0.71326 W
        Subthreshold Leakage = 0.0942255 W
        Subthreshold Leakage with power gating = 0.0432387 W
        Gate Leakage = 0.0173421 W
        Runtime Dynamic = 0.0211619 W

          Itlb:
            Area = 0.301552 mm^2
            Peak Dynamic = 0.0683215 W
            Subthreshold Leakage = 0.0294516 W
            Subthreshold Leakage with power gating = 0.0167874 W
            Gate Leakage = 0.00393464 W
            Runtime Dynamic = 0.00862718 W

          Dtlb:
            Area = 0.0879726 mm^2
            Peak Dynamic = 0.0122914 W
            Subthreshold Leakage = 0.0110828 W
            Subthreshold Leakage with power gating = 0.00631717 W
            Gate Leakage = 0.00088729 W
            Runtime Dynamic = 0.0125348 W

      Execution Unit:
        Area = 6.14103 mm^2
        Peak Dynamic = 0.139394 W
        Subthreshold Leakage = 1.25199 W
        Subthreshold Leakage with power gating = 0.469807 W
        Gate Leakage = 0.12351 W
        Runtime Dynamic = 0.136663 W

          Register Files:
            Area = 0.570804 mm^2
            Peak Dynamic = 0.0175708 W
            Subthreshold Leakage = 0.00721681 W
            Subthreshold Leakage with power gating = 0.00301552 W
            Gate Leakage = 0.000622708 W
            Runtime Dynamic = 0.0203996 W

              Integer RF:
                Area = 0.362673 mm^2
                Peak Dynamic = 0.0175708 W
                Subthreshold Leakage = 0.00437174 W
                Subthreshold Leakage with power gating = 0.00175585 W
                Gate Leakage = 0.00038992 W
                Runtime Dynamic = 0.0179698 W

              Floating Point RF:
                Area = 0.208131 mm^2
                Peak Dynamic = 0 W
                Subthreshold Leakage = 0.00284507 W
                Subthreshold Leakage with power gating = 0.00125967 W
                Gate Leakage = 0.000232788 W
                Runtime Dynamic = 0.00242979 W

          Instruction Scheduler:
            Area = 0 mm^2
            Peak Dynamic = 0 W
            Subthreshold Leakage = 0 W
            Subthreshold Leakage with power gating = -nan W
            Gate Leakage = 0 W
            Runtime Dynamic = 0 W

          Integer ALUs (Count: 6 ):
            Area = 0.47087 mm^2
            Peak Dynamic = 0.0633699 W
            Subthreshold Leakage = 0.286303 W
            Subthreshold Leakage with power gating = 0.107364 W
            Gate Leakage = 0.0265291 W
            Runtime Dynamic = 0.0539954 W

          Floating Point Units (FPUs) (Count: 2 ):
            Area = 4.6585 mm^2
            Peak Dynamic = 0 W
            Subthreshold Leakage = 0.708126 W
            Subthreshold Leakage with power gating = 0.265547 W
            Gate Leakage = 0.0656156 W
            Runtime Dynamic = 0 W

          Complex ALUs (Mul/Div) (Count: 1 ):
            Area = 0.235435 mm^2
            Peak Dynamic = 0 W
            Subthreshold Leakage = 0.143151 W
            Subthreshold Leakage with power gating = 0.0536818 W
            Gate Leakage = 0.0132646 W
            Runtime Dynamic = 0 W

          Results Broadcast Bus:
            Area Overhead = 0.0352036 mm^2
            Peak Dynamic = 0.0243594 W
            Subthreshold Leakage = 0.0535057 W
            Subthreshold Leakage with power gating = 0.0200646 W
            Gate Leakage = 0.00495789 W
            Runtime Dynamic = 0.0622676 W

    L2
    Area = 4.53318 mm^2
    Peak Dynamic = 0.0264287 W
    Subthreshold Leakage = 0.593748 W
    Subthreshold Leakage with power gating = 0.285481 W
    Gate Leakage = 0.015464 W
    Runtime Dynamic = 0.00596485 W

*****************************************************************************************
Core:
      Area = 25.6888 mm^2
      Peak Dynamic = 6.17163 W
      Subthreshold Leakage = 3.22341 W
      Subthreshold Leakage with power gating = 1.36419 W
      Gate Leakage = 0.280015 W
      Runtime Dynamic = 0.598916 W

      Instruction Fetch Unit:
        Area = 5.98523 mm^2
        Peak Dynamic = 3.5206 W
        Subthreshold Leakage = 0.703301 W
        Subthreshold Leakage with power gating = 0.305608 W
        Gate Leakage = 0.0682541 W
        Runtime Dynamic = 0.150479 W

          Instruction Cache:
            Area = 3.14635 mm^2
            Peak Dynamic = 1.09773 W
            Subthreshold Leakage = 0.261248 W
            Subthreshold Leakage with power gating = 0.1284 W
            Gate Leakage = 0.029931 W
            Runtime Dynamic = 0.0657119 W

          Branch Target Buffer:
            Area = 0.64954 mm^2
            Peak Dynamic = 0.177867 W
            Subthreshold Leakage = 0.057776 W
            Subthreshold Leakage with power gating = 0.030989 W
            Gate Leakage = 0.00272758 W
            Runtime Dynamic = 0.00662674 W

          Branch Predictor:
            Area = 0.138516 mm^2
            Peak Dynamic = 0.0597838 W
            Subthreshold Leakage = 0.014215 W
            Subthreshold Leakage with power gating = 0.0073517 W
            Gate Leakage = 0.000757657 W
            Runtime Dynamic = 0.00226803 W

              Global Predictor:
                Area = 0.0435221 mm^2
                Peak Dynamic = 0.0168831 W
                Subthreshold Leakage = 0.00540773 W
                Subthreshold Leakage with power gating = 0.00279284 W
                Gate Leakage = 0.000278362 W
                Runtime Dynamic = 0.000699396 W

              Local Predictor:
              L1_Local Predictor:
                Area = 0.0257064 mm^2
                Peak Dynamic = 0.0142575 W
                Subthreshold Leakage = 0.00273579 W
                Subthreshold Leakage with power gating = 0.00141387 W
                Gate Leakage = 0.000154548 W
                Runtime Dynamic = 0.000611385 W

              L2_Local Predictor:
                Area = 0.0151917 mm^2
                Peak Dynamic = 0.00527447 W
                Subthreshold Leakage = 0.00129084 W
                Subthreshold Leakage with power gating = 0.000681231 W
                Gate Leakage = 8.00196e-05 W
                Runtime Dynamic = 0.000237887 W

              Chooser:
                Area = 0.0435221 mm^2
                Peak Dynamic = 0.0168831 W
                Subthreshold Leakage = 0.00540773 W
                Subthreshold Leakage with power gating = 0.00279284 W
                Gate Leakage = 0.000278362 W
                Runtime Dynamic = 0.000699396 W

              RAS:
                Area = 0.0105732 mm^2
                Peak Dynamic = 0.0117602 W
                Subthreshold Leakage = 0.000663763 W
                Subthreshold Leakage with power gating = 0.000352154 W
                Gate Leakage = 4.63858e-05 W
                Runtime Dynamic = 0.000257848 W

          Instruction Buffer:
            Area = 0.0226323 mm^2
            Peak Dynamic = 0.606827 W
            Subthreshold Leakage = 0.00108112 W
            Subthreshold Leakage with power gating = 0.000499461 W
            Gate Leakage = 6.83558e-05 W
            Runtime Dynamic = 0.0172576 W

          Instruction Decoder:
            Area = 1.85799 mm^2
            Peak Dynamic = 1.37404 W
            Subthreshold Leakage = 0.31529 W
            Subthreshold Leakage with power gating = 0.118234 W
            Gate Leakage = 0.0222493 W
            Runtime Dynamic = 0.0586146 W

      Load Store Unit:
        Area = 8.05439 mm^2
        Peak Dynamic = 1.77265 W
        Subthreshold Leakage = 0.453895 W
        Subthreshold Leakage with power gating = 0.212713 W
        Gate Leakage = 0.0437459 W
        Runtime Dynamic = 0.284886 W

          Data Cache:
            Area = 6.84535 mm^2
            Peak Dynamic = 1.67051 W
            Subthreshold Leakage = 0.375602 W
            Subthreshold Leakage with power gating = 0.178556 W
            Gate Leakage = 0.0279261 W
            Runtime Dynamic = 0.215739 W

          Load/Store Queue:
            Area = 0.322079 mm^2
            Peak Dynamic = 0.0345738 W
            Subthreshold Leakage = 0.0246015 W
            Subthreshold Leakage with power gating = 0.0140229 W
            Gate Leakage = 0.00329971 W
            Runtime Dynamic = 0.0691475 W

      Memory Management Unit:
        Area = 0.559739 mm^2
        Peak Dynamic = 0.713112 W
        Subthreshold Leakage = 0.0942255 W
        Subthreshold Leakage with power gating = 0.0432387 W
        Gate Leakage = 0.0173421 W
        Runtime Dynamic = 0.0211242 W

          Itlb:
            Area = 0.301552 mm^2
            Peak Dynamic = 0.0682531 W
            Subthreshold Leakage = 0.0294516 W
            Subthreshold Leakage with power gating = 0.0167874 W
            Gate Leakage = 0.00393464 W
            Runtime Dynamic = 0.00861031 W

          Dtlb:
            Area = 0.0879726 mm^2
            Peak Dynamic = 0.0122704 W
            Subthreshold Leakage = 0.0110828 W
            Subthreshold Leakage with power gating = 0.00631717 W
            Gate Leakage = 0.00088729 W
            Runtime Dynamic = 0.0125139 W

      Execution Unit:
        Area = 6.14103 mm^2
        Peak Dynamic = 0.139252 W
        Subthreshold Leakage = 1.25199 W
        Subthreshold Leakage with power gating = 0.469807 W
        Gate Leakage = 0.12351 W
        Runtime Dynamic = 0.136516 W

          Register Files:
            Area = 0.570804 mm^2
            Peak Dynamic = 0.0175529 W
            Subthreshold Leakage = 0.00721681 W
            Subthreshold Leakage with power gating = 0.00301552 W
            Gate Leakage = 0.000622708 W
            Runtime Dynamic = 0.0203791 W

              Integer RF:
                Area = 0.362673 mm^2
                Peak Dynamic = 0.0175529 W
                Subthreshold Leakage = 0.00437174 W
                Subthreshold Leakage with power gating = 0.00175585 W
                Gate Leakage = 0.00038992 W
                Runtime Dynamic = 0.0179518 W

              Floating Point RF:
                Area = 0.208131 mm^2
                Peak Dynamic = 0 W
                Subthreshold Leakage = 0.00284507 W
                Subthreshold Leakage with power gating = 0.00125967 W
                Gate Leakage = 0.000232788 W
                Runtime Dynamic = 0.00242728 W

          Instruction Scheduler:
            Area = 0 mm^2
            Peak Dynamic = 0 W
            Subthreshold Leakage = 0 W
            Subthreshold Leakage with power gating = -nan W
            Gate Leakage = 0 W
            Runtime Dynamic = 0 W

          Integer ALUs (Count: 6 ):
            Area = 0.47087 mm^2
            Peak Dynamic = 0.0633053 W
            Subthreshold Leakage = 0.286303 W
            Subthreshold Leakage with power gating = 0.107364 W
            Gate Leakage = 0.0265291 W
            Runtime Dynamic = 0.053937 W

          Floating Point Units (FPUs) (Count: 2 ):
            Area = 4.6585 mm^2
            Peak Dynamic = 0 W
            Subthreshold Leakage = 0.708126 W
            Subthreshold Leakage with power gating = 0.265547 W
            Gate Leakage = 0.0656156 W
            Runtime Dynamic = 0 W

          Complex ALUs (Mul/Div) (Count: 1 ):
            Area = 0.235435 mm^2
            Peak Dynamic = 0 W
            Subthreshold Leakage = 0.143151 W
            Subthreshold Leakage with power gating = 0.0536818 W
            Gate Leakage = 0.0132646 W
            Runtime Dynamic = 0 W

          Results Broadcast Bus:
            Area Overhead = 0.0352036 mm^2
            Peak Dynamic = 0.0243346 W
            Subthreshold Leakage = 0.0535057 W
            Subthreshold Leakage with power gating = 0.0200646 W
            Gate Leakage = 0.00495789 W
            Runtime Dynamic = 0.0622002 W

    L2
    Area = 4.53318 mm^2
    Peak Dynamic = 0.0260063 W
    Subthreshold Leakage = 0.593748 W
    Subthreshold Leakage with power gating = 0.285481 W
    Gate Leakage = 0.015464 W
    Runtime Dynamic = 0.00591066 W

*****************************************************************************************
Core:
      Area = 25.6888 mm^2
      Peak Dynamic = 6.17659 W
      Subthreshold Leakage = 3.22341 W
      Subthreshold Leakage with power gating = 1.36419 W
      Gate Leakage = 0.280015 W
      Runtime Dynamic = 0.600396 W

      Instruction Fetch Unit:
        Area = 5.98523 mm^2
        Peak Dynamic = 3.5235 W
        Subthreshold Leakage = 0.703301 W
        Subthreshold Leakage with power gating = 0.305608 W
        Gate Leakage = 0.0682541 W
        Runtime Dynamic = 0.150948 W

          Instruction Cache:
            Area = 3.14635 mm^2
            Peak Dynamic = 1.10018 W
            Subthreshold Leakage = 0.261248 W
            Subthreshold Leakage with power gating = 0.1284 W
            Gate Leakage = 0.029931 W
            Runtime Dynamic = 0.0659918 W

          Branch Target Buffer:
            Area = 0.64954 mm^2
            Peak Dynamic = 0.177867 W
            Subthreshold Leakage = 0.057776 W
            Subthreshold Leakage with power gating = 0.030989 W
            Gate Leakage = 0.00272758 W
            Runtime Dynamic = 0.00664074 W

          Branch Predictor:
            Area = 0.138516 mm^2
            Peak Dynamic = 0.0597838 W
            Subthreshold Leakage = 0.014215 W
            Subthreshold Leakage with power gating = 0.0073517 W
            Gate Leakage = 0.000757657 W
            Runtime Dynamic = 0.00227382 W

              Global Predictor:
                Area = 0.0435221 mm^2
                Peak Dynamic = 0.0168831 W
                Subthreshold Leakage = 0.00540773 W
                Subthreshold Leakage with power gating = 0.00279284 W
                Gate Leakage = 0.000278362 W
                Runtime Dynamic = 0.000701177 W

              Local Predictor:
              L1_Local Predictor:
                Area = 0.0257064 mm^2
                Peak Dynamic = 0.0142575 W
                Subthreshold Leakage = 0.00273579 W
                Subthreshold Leakage with power gating = 0.00141387 W
                Gate Leakage = 0.000154548 W
                Runtime Dynamic = 0.000613022 W

              L2_Local Predictor:
                Area = 0.0151917 mm^2
                Peak Dynamic = 0.00527447 W
                Subthreshold Leakage = 0.00129084 W
                Subthreshold Leakage with power gating = 0.000681231 W
                Gate Leakage = 8.00196e-05 W
                Runtime Dynamic = 0.000238567 W

              Chooser:
                Area = 0.0435221 mm^2
                Peak Dynamic = 0.0168831 W
                Subthreshold Leakage = 0.00540773 W
                Subthreshold Leakage with power gating = 0.00279284 W
                Gate Leakage = 0.000278362 W
                Runtime Dynamic = 0.000701177 W

              RAS:
                Area = 0.0105732 mm^2
                Peak Dynamic = 0.0117602 W
                Subthreshold Leakage = 0.000663763 W
                Subthreshold Leakage with power gating = 0.000352154 W
                Gate Leakage = 4.63858e-05 W
                Runtime Dynamic = 0.000258443 W

          Instruction Buffer:
            Area = 0.0226323 mm^2
            Peak Dynamic = 0.606827 W
            Subthreshold Leakage = 0.00108112 W
            Subthreshold Leakage with power gating = 0.000499461 W
            Gate Leakage = 6.83558e-05 W
            Runtime Dynamic = 0.0172961 W

          Instruction Decoder:
            Area = 1.85799 mm^2
            Peak Dynamic = 1.37404 W
            Subthreshold Leakage = 0.31529 W
            Subthreshold Leakage with power gating = 0.118234 W
            Gate Leakage = 0.0222493 W
            Runtime Dynamic = 0.0587454 W

      Load Store Unit:
        Area = 8.05439 mm^2
        Peak Dynamic = 1.7738 W
        Subthreshold Leakage = 0.453895 W
        Subthreshold Leakage with power gating = 0.212713 W
        Gate Leakage = 0.0437459 W
        Runtime Dynamic = 0.285555 W

          Data Cache:
            Area = 6.84535 mm^2
            Peak Dynamic = 1.67144 W
            Subthreshold Leakage = 0.375602 W
            Subthreshold Leakage with power gating = 0.178556 W
            Gate Leakage = 0.0279261 W
            Runtime Dynamic = 0.21626 W

          Load/Store Queue:
            Area = 0.322079 mm^2
            Peak Dynamic = 0.0346479 W
            Subthreshold Leakage = 0.0246015 W
            Subthreshold Leakage with power gating = 0.0140229 W
            Gate Leakage = 0.00329971 W
            Runtime Dynamic = 0.0692956 W

      Memory Management Unit:
        Area = 0.559739 mm^2
        Peak Dynamic = 0.713363 W
        Subthreshold Leakage = 0.0942255 W
        Subthreshold Leakage with power gating = 0.0432387 W
        Gate Leakage = 0.0173421 W
        Runtime Dynamic = 0.0211782 W

          Itlb:
            Area = 0.301552 mm^2
            Peak Dynamic = 0.0684051 W
            Subthreshold Leakage = 0.0294516 W
            Subthreshold Leakage with power gating = 0.0167874 W
            Gate Leakage = 0.00393464 W
            Runtime Dynamic = 0.00863424 W

          Dtlb:
            Area = 0.0879726 mm^2
            Peak Dynamic = 0.0122967 W
            Subthreshold Leakage = 0.0110828 W
            Subthreshold Leakage with power gating = 0.00631717 W
            Gate Leakage = 0.00088729 W
            Runtime Dynamic = 0.0125439 W

      Execution Unit:
        Area = 6.14103 mm^2
        Peak Dynamic = 0.139565 W
        Subthreshold Leakage = 1.25199 W
        Subthreshold Leakage with power gating = 0.469807 W
        Gate Leakage = 0.12351 W
        Runtime Dynamic = 0.136763 W

          Register Files:
            Area = 0.570804 mm^2
            Peak Dynamic = 0.0175924 W
            Subthreshold Leakage = 0.00721681 W
            Subthreshold Leakage with power gating = 0.00301552 W
            Gate Leakage = 0.000622708 W
            Runtime Dynamic = 0.0204246 W

              Integer RF:
                Area = 0.362673 mm^2
                Peak Dynamic = 0.0175924 W
                Subthreshold Leakage = 0.00437174 W
                Subthreshold Leakage with power gating = 0.00175585 W
                Gate Leakage = 0.00038992 W
                Runtime Dynamic = 0.0179919 W

              Floating Point RF:
                Area = 0.208131 mm^2
                Peak Dynamic = 0 W
                Subthreshold Leakage = 0.00284507 W
                Subthreshold Leakage with power gating = 0.00125967 W
                Gate Leakage = 0.000232788 W
                Runtime Dynamic = 0.00243271 W

          Instruction Scheduler:
            Area = 0 mm^2
            Peak Dynamic = 0 W
            Subthreshold Leakage = 0 W
            Subthreshold Leakage with power gating = -nan W
            Gate Leakage = 0 W
            Runtime Dynamic = 0 W

          Integer ALUs (Count: 6 ):
            Area = 0.47087 mm^2
            Peak Dynamic = 0.0634478 W
            Subthreshold Leakage = 0.286303 W
            Subthreshold Leakage with power gating = 0.107364 W
            Gate Leakage = 0.0265291 W
            Runtime Dynamic = 0.0540304 W

          Floating Point Units (FPUs) (Count: 2 ):
            Area = 4.6585 mm^2
            Peak Dynamic = 0 W
            Subthreshold Leakage = 0.708126 W
            Subthreshold Leakage with power gating = 0.265547 W
            Gate Leakage = 0.0656156 W
            Runtime Dynamic = 0 W

          Complex ALUs (Mul/Div) (Count: 1 ):
            Area = 0.235435 mm^2
            Peak Dynamic = 0 W
            Subthreshold Leakage = 0.143151 W
            Subthreshold Leakage with power gating = 0.0536818 W
            Gate Leakage = 0.0132646 W
            Runtime Dynamic = 0 W

          Results Broadcast Bus:
            Area Overhead = 0.0352036 mm^2
            Peak Dynamic = 0.0243893 W
            Subthreshold Leakage = 0.0535057 W
            Subthreshold Leakage with power gating = 0.0200646 W
            Gate Leakage = 0.00495789 W
            Runtime Dynamic = 0.0623079 W

    L2
    Area = 4.53318 mm^2
    Peak Dynamic = 0.0263575 W
    Subthreshold Leakage = 0.593748 W
    Subthreshold Leakage with power gating = 0.285481 W
    Gate Leakage = 0.015464 W
    Runtime Dynamic = 0.00595134 W

*****************************************************************************************
      L3
      Area = 61.9075 mm^2
      Peak Dynamic = 0.127393 W
      Subthreshold Leakage = 6.80085 W
      Subthreshold Leakage with power gating = 3.32364 W
      Gate Leakage = 0.0484137 W
      Runtime Dynamic = 0.0372385 W

*****************************************************************************************
BUSES
      Area = 1.13708 mm^2
      Peak Dynamic = 0 W
      Subthreshold Leakage = 0.0590355 W
      Subthreshold Leakage with power gating = 0.0221383 W
      Gate Leakage = 0.0056613 W
      Runtime Dynamic = 0 W

      Bus: 
        Area = 1.13708 mm^2
        Peak Dynamic = 0 W
        Subthreshold Leakage = 0.0590355 W
        Subthreshold Leakage with power gating = 0.0221383 W
        Gate Leakage = 0.0056613 W
        Runtime Dynamic = 0 W

*****************************************************************************************
