McPAT (version 1.0 of Aug, 2013) is computing the target processor...
 

McPAT (version 1.0 of Aug, 2013) results  (current print level is 5)
*****************************************************************************************
  Technology 45 nm
  Using Long Channel Devices When Appropriate
  Interconnect metal projection= aggressive interconnect technology projection
  Core clock Rate(MHz) 2660

*****************************************************************************************
Processor: 
  Area = 637.714 mm^2
  Peak Power = 160.272 W
  Total Leakage = 80.0942 W
  Peak Dynamic = 80.1779 W
  Subthreshold Leakage = 75.6875 W
  Subthreshold Leakage with power gating = 34.2992 W
  Gate Leakage = 4.40662 W
  Runtime Dynamic = 6.37967 W

  Total Cores: 15 cores 
  Device Type= ITRS high performance device type
    Area = 385.333 mm^2
    Peak Dynamic = 78.4966 W
    Subthreshold Leakage = 48.3512 W
    Subthreshold Leakage with power gating = 20.4629 W
    Gate Leakage = 4.20022 W
    Runtime Dynamic = 5.45621 W

  Total L3s: 
  Device Type= ITRS high performance device type
    Area = 247.63 mm^2
    Peak Dynamic = 1.68133 W
    Subthreshold Leakage = 27.2034 W
    Subthreshold Leakage with power gating = 13.2946 W
    Gate Leakage = 0.193655 W
    Runtime Dynamic = 0.923456 W

  Total NoCs (Network/Bus): 
  Device Type= ITRS high performance device type
    Area = 4.75126 mm^2
    Peak Dynamic = 0 W
    Subthreshold Leakage = 0.132917 W
    Subthreshold Leakage with power gating = 0.0498438 W
    Gate Leakage = 0.0127463 W
    Runtime Dynamic = 0 W

*****************************************************************************************
Core:
      Area = 25.6888 mm^2
      Peak Dynamic = 5.28008 W
      Subthreshold Leakage = 3.22341 W
      Subthreshold Leakage with power gating = 1.36419 W
      Gate Leakage = 0.280015 W
      Runtime Dynamic = 0.371897 W

      Instruction Fetch Unit:
        Area = 5.98523 mm^2
        Peak Dynamic = 2.94679 W
        Subthreshold Leakage = 0.703301 W
        Subthreshold Leakage with power gating = 0.305608 W
        Gate Leakage = 0.0682541 W
        Runtime Dynamic = 0.106972 W

          Instruction Cache:
            Area = 3.14635 mm^2
            Peak Dynamic = 0.613975 W
            Subthreshold Leakage = 0.261248 W
            Subthreshold Leakage with power gating = 0.1284 W
            Gate Leakage = 0.029931 W
            Runtime Dynamic = 0.059558 W

          Branch Target Buffer:
            Area = 0.64954 mm^2
            Peak Dynamic = 0.177867 W
            Subthreshold Leakage = 0.057776 W
            Subthreshold Leakage with power gating = 0.030989 W
            Gate Leakage = 0.00272758 W
            Runtime Dynamic = 0.00370778 W

          Branch Predictor:
            Area = 0.138516 mm^2
            Peak Dynamic = 0.0597838 W
            Subthreshold Leakage = 0.014215 W
            Subthreshold Leakage with power gating = 0.0073517 W
            Gate Leakage = 0.000757657 W
            Runtime Dynamic = 0.00126949 W

              Global Predictor:
                Area = 0.0435221 mm^2
                Peak Dynamic = 0.0168831 W
                Subthreshold Leakage = 0.00540773 W
                Subthreshold Leakage with power gating = 0.00279284 W
                Gate Leakage = 0.000278362 W
                Runtime Dynamic = 0.000391494 W

              Local Predictor:
              L1_Local Predictor:
                Area = 0.0257064 mm^2
                Peak Dynamic = 0.0142575 W
                Subthreshold Leakage = 0.00273579 W
                Subthreshold Leakage with power gating = 0.00141387 W
                Gate Leakage = 0.000154548 W
                Runtime Dynamic = 0.000342274 W

              L2_Local Predictor:
                Area = 0.0151917 mm^2
                Peak Dynamic = 0.00527447 W
                Subthreshold Leakage = 0.00129084 W
                Subthreshold Leakage with power gating = 0.000681231 W
                Gate Leakage = 8.00196e-05 W
                Runtime Dynamic = 0.000133201 W

              Chooser:
                Area = 0.0435221 mm^2
                Peak Dynamic = 0.0168831 W
                Subthreshold Leakage = 0.00540773 W
                Subthreshold Leakage with power gating = 0.00279284 W
                Gate Leakage = 0.000278362 W
                Runtime Dynamic = 0.000391494 W

              RAS:
                Area = 0.0105732 mm^2
                Peak Dynamic = 0.0117602 W
                Subthreshold Leakage = 0.000663763 W
                Subthreshold Leakage with power gating = 0.000352154 W
                Gate Leakage = 4.63858e-05 W
                Runtime Dynamic = 0.000144228 W

          Instruction Buffer:
            Area = 0.0226323 mm^2
            Peak Dynamic = 0.606827 W
            Subthreshold Leakage = 0.00108112 W
            Subthreshold Leakage with power gating = 0.000499461 W
            Gate Leakage = 6.83558e-05 W
            Runtime Dynamic = 0.00965241 W

          Instruction Decoder:
            Area = 1.85799 mm^2
            Peak Dynamic = 1.37404 W
            Subthreshold Leakage = 0.31529 W
            Subthreshold Leakage with power gating = 0.118234 W
            Gate Leakage = 0.0222493 W
            Runtime Dynamic = 0.0327839 W

      Load Store Unit:
        Area = 8.05439 mm^2
        Peak Dynamic = 1.53652 W
        Subthreshold Leakage = 0.453895 W
        Subthreshold Leakage with power gating = 0.212713 W
        Gate Leakage = 0.0437459 W
        Runtime Dynamic = 0.167505 W

          Data Cache:
            Area = 6.84535 mm^2
            Peak Dynamic = 1.47942 W
            Subthreshold Leakage = 0.375602 W
            Subthreshold Leakage with power gating = 0.178556 W
            Gate Leakage = 0.0279261 W
            Runtime Dynamic = 0.128846 W

          Load/Store Queue:
            Area = 0.322079 mm^2
            Peak Dynamic = 0.0193293 W
            Subthreshold Leakage = 0.0246015 W
            Subthreshold Leakage with power gating = 0.0140229 W
            Gate Leakage = 0.00329971 W
            Runtime Dynamic = 0.0386587 W

      Memory Management Unit:
        Area = 0.559739 mm^2
        Peak Dynamic = 0.662727 W
        Subthreshold Leakage = 0.0942255 W
        Subthreshold Leakage with power gating = 0.0432387 W
        Gate Leakage = 0.0173421 W
        Runtime Dynamic = 0.01219 W

          Itlb:
            Area = 0.301552 mm^2
            Peak Dynamic = 0.0381747 W
            Subthreshold Leakage = 0.0294516 W
            Subthreshold Leakage with power gating = 0.0167874 W
            Gate Leakage = 0.00393464 W
            Runtime Dynamic = 0.00482083 W

          Dtlb:
            Area = 0.0879726 mm^2
            Peak Dynamic = 0.00686002 W
            Subthreshold Leakage = 0.0110828 W
            Subthreshold Leakage with power gating = 0.00631717 W
            Gate Leakage = 0.00088729 W
            Runtime Dynamic = 0.00736919 W

      Execution Unit:
        Area = 6.14103 mm^2
        Peak Dynamic = 0.0778837 W
        Subthreshold Leakage = 1.25199 W
        Subthreshold Leakage with power gating = 0.469807 W
        Gate Leakage = 0.12351 W
        Runtime Dynamic = 0.0763544 W

          Register Files:
            Area = 0.570804 mm^2
            Peak Dynamic = 0.00981737 W
            Subthreshold Leakage = 0.00721681 W
            Subthreshold Leakage with power gating = 0.00301552 W
            Gate Leakage = 0.000622708 W
            Runtime Dynamic = 0.0113983 W

              Integer RF:
                Area = 0.362673 mm^2
                Peak Dynamic = 0.00981737 W
                Subthreshold Leakage = 0.00437174 W
                Subthreshold Leakage with power gating = 0.00175585 W
                Gate Leakage = 0.00038992 W
                Runtime Dynamic = 0.0100407 W

              Floating Point RF:
                Area = 0.208131 mm^2
                Peak Dynamic = 0 W
                Subthreshold Leakage = 0.00284507 W
                Subthreshold Leakage with power gating = 0.00125967 W
                Gate Leakage = 0.000232788 W
                Runtime Dynamic = 0.00135763 W

          Instruction Scheduler:
            Area = 0 mm^2
            Peak Dynamic = 0 W
            Subthreshold Leakage = 0 W
            Subthreshold Leakage with power gating = -nan W
            Gate Leakage = 0 W
            Runtime Dynamic = 0 W

          Integer ALUs (Count: 6 ):
            Area = 0.47087 mm^2
            Peak Dynamic = 0.0354068 W
            Subthreshold Leakage = 0.286303 W
            Subthreshold Leakage with power gating = 0.107364 W
            Gate Leakage = 0.0265291 W
            Runtime Dynamic = 0.0301672 W

          Floating Point Units (FPUs) (Count: 2 ):
            Area = 4.6585 mm^2
            Peak Dynamic = 0 W
            Subthreshold Leakage = 0.708126 W
            Subthreshold Leakage with power gating = 0.265547 W
            Gate Leakage = 0.0656156 W
            Runtime Dynamic = 0 W

          Complex ALUs (Mul/Div) (Count: 1 ):
            Area = 0.235435 mm^2
            Peak Dynamic = 0 W
            Subthreshold Leakage = 0.143151 W
            Subthreshold Leakage with power gating = 0.0536818 W
            Gate Leakage = 0.0132646 W
            Runtime Dynamic = 0 W

          Results Broadcast Bus:
            Area Overhead = 0.0352036 mm^2
            Peak Dynamic = 0.0136104 W
            Subthreshold Leakage = 0.0535057 W
            Subthreshold Leakage with power gating = 0.0200646 W
            Gate Leakage = 0.00495789 W
            Runtime Dynamic = 0.0347889 W

    L2
    Area = 4.53318 mm^2
    Peak Dynamic = 0.0561553 W
    Subthreshold Leakage = 0.593748 W
    Subthreshold Leakage with power gating = 0.285481 W
    Gate Leakage = 0.015464 W
    Runtime Dynamic = 0.00887624 W

*****************************************************************************************
Core:
      Area = 25.6888 mm^2
      Peak Dynamic = 5.27709 W
      Subthreshold Leakage = 3.22341 W
      Subthreshold Leakage with power gating = 1.36419 W
      Gate Leakage = 0.280015 W
      Runtime Dynamic = 0.37154 W

      Instruction Fetch Unit:
        Area = 5.98523 mm^2
        Peak Dynamic = 2.94467 W
        Subthreshold Leakage = 0.703301 W
        Subthreshold Leakage with power gating = 0.305608 W
        Gate Leakage = 0.0682541 W
        Runtime Dynamic = 0.107376 W

          Instruction Cache:
            Area = 3.14635 mm^2
            Peak Dynamic = 0.612193 W
            Subthreshold Leakage = 0.261248 W
            Subthreshold Leakage with power gating = 0.1284 W
            Gate Leakage = 0.029931 W
            Runtime Dynamic = 0.0601049 W

          Branch Target Buffer:
            Area = 0.64954 mm^2
            Peak Dynamic = 0.177867 W
            Subthreshold Leakage = 0.057776 W
            Subthreshold Leakage with power gating = 0.030989 W
            Gate Leakage = 0.00272758 W
            Runtime Dynamic = 0.00369396 W

          Branch Predictor:
            Area = 0.138516 mm^2
            Peak Dynamic = 0.0597838 W
            Subthreshold Leakage = 0.014215 W
            Subthreshold Leakage with power gating = 0.0073517 W
            Gate Leakage = 0.000757657 W
            Runtime Dynamic = 0.00126391 W

              Global Predictor:
                Area = 0.0435221 mm^2
                Peak Dynamic = 0.0168831 W
                Subthreshold Leakage = 0.00540773 W
                Subthreshold Leakage with power gating = 0.00279284 W
                Gate Leakage = 0.000278362 W
                Runtime Dynamic = 0.000389728 W

              Local Predictor:
              L1_Local Predictor:
                Area = 0.0257064 mm^2
                Peak Dynamic = 0.0142575 W
                Subthreshold Leakage = 0.00273579 W
                Subthreshold Leakage with power gating = 0.00141387 W
                Gate Leakage = 0.000154548 W
                Runtime Dynamic = 0.000340649 W

              L2_Local Predictor:
                Area = 0.0151917 mm^2
                Peak Dynamic = 0.00527447 W
                Subthreshold Leakage = 0.00129084 W
                Subthreshold Leakage with power gating = 0.000681231 W
                Gate Leakage = 8.00196e-05 W
                Runtime Dynamic = 0.000132525 W

              Chooser:
                Area = 0.0435221 mm^2
                Peak Dynamic = 0.0168831 W
                Subthreshold Leakage = 0.00540773 W
                Subthreshold Leakage with power gating = 0.00279284 W
                Gate Leakage = 0.000278362 W
                Runtime Dynamic = 0.000389728 W

              RAS:
                Area = 0.0105732 mm^2
                Peak Dynamic = 0.0117602 W
                Subthreshold Leakage = 0.000663763 W
                Subthreshold Leakage with power gating = 0.000352154 W
                Gate Leakage = 4.63858e-05 W
                Runtime Dynamic = 0.000143801 W

          Instruction Buffer:
            Area = 0.0226323 mm^2
            Peak Dynamic = 0.606827 W
            Subthreshold Leakage = 0.00108112 W
            Subthreshold Leakage with power gating = 0.000499461 W
            Gate Leakage = 6.83558e-05 W
            Runtime Dynamic = 0.00962439 W

          Instruction Decoder:
            Area = 1.85799 mm^2
            Peak Dynamic = 1.37404 W
            Subthreshold Leakage = 0.31529 W
            Subthreshold Leakage with power gating = 0.118234 W
            Gate Leakage = 0.0222493 W
            Runtime Dynamic = 0.0326888 W

      Load Store Unit:
        Area = 8.05439 mm^2
        Peak Dynamic = 1.53546 W
        Subthreshold Leakage = 0.453895 W
        Subthreshold Leakage with power gating = 0.212713 W
        Gate Leakage = 0.0437459 W
        Runtime Dynamic = 0.166912 W

          Data Cache:
            Area = 6.84535 mm^2
            Peak Dynamic = 1.47856 W
            Subthreshold Leakage = 0.375602 W
            Subthreshold Leakage with power gating = 0.178556 W
            Gate Leakage = 0.0279261 W
            Runtime Dynamic = 0.128391 W

          Load/Store Queue:
            Area = 0.322079 mm^2
            Peak Dynamic = 0.0192606 W
            Subthreshold Leakage = 0.0246015 W
            Subthreshold Leakage with power gating = 0.0140229 W
            Gate Leakage = 0.00329971 W
            Runtime Dynamic = 0.0385212 W

      Memory Management Unit:
        Area = 0.559739 mm^2
        Peak Dynamic = 0.662524 W
        Subthreshold Leakage = 0.0942255 W
        Subthreshold Leakage with power gating = 0.0432387 W
        Gate Leakage = 0.0173421 W
        Runtime Dynamic = 0.0121447 W

          Itlb:
            Area = 0.301552 mm^2
            Peak Dynamic = 0.0380639 W
            Subthreshold Leakage = 0.0294516 W
            Subthreshold Leakage with power gating = 0.0167874 W
            Gate Leakage = 0.00393464 W
            Runtime Dynamic = 0.00479819 W

          Dtlb:
            Area = 0.0879726 mm^2
            Peak Dynamic = 0.00683566 W
            Subthreshold Leakage = 0.0110828 W
            Subthreshold Leakage with power gating = 0.00631717 W
            Gate Leakage = 0.00088729 W
            Runtime Dynamic = 0.00734646 W

      Execution Unit:
        Area = 6.14103 mm^2
        Peak Dynamic = 0.0776585 W
        Subthreshold Leakage = 1.25199 W
        Subthreshold Leakage with power gating = 0.469807 W
        Gate Leakage = 0.12351 W
        Runtime Dynamic = 0.0761264 W

          Register Files:
            Area = 0.570804 mm^2
            Peak Dynamic = 0.00978898 W
            Subthreshold Leakage = 0.00721681 W
            Subthreshold Leakage with power gating = 0.00301552 W
            Gate Leakage = 0.000622708 W
            Runtime Dynamic = 0.0113653 W

              Integer RF:
                Area = 0.362673 mm^2
                Peak Dynamic = 0.00978898 W
                Subthreshold Leakage = 0.00437174 W
                Subthreshold Leakage with power gating = 0.00175585 W
                Gate Leakage = 0.00038992 W
                Runtime Dynamic = 0.0100116 W

              Floating Point RF:
                Area = 0.208131 mm^2
                Peak Dynamic = 0 W
                Subthreshold Leakage = 0.00284507 W
                Subthreshold Leakage with power gating = 0.00125967 W
                Gate Leakage = 0.000232788 W
                Runtime Dynamic = 0.0013537 W

          Instruction Scheduler:
            Area = 0 mm^2
            Peak Dynamic = 0 W
            Subthreshold Leakage = 0 W
            Subthreshold Leakage with power gating = -nan W
            Gate Leakage = 0 W
            Runtime Dynamic = 0 W

          Integer ALUs (Count: 6 ):
            Area = 0.47087 mm^2
            Peak Dynamic = 0.0353044 W
            Subthreshold Leakage = 0.286303 W
            Subthreshold Leakage with power gating = 0.107364 W
            Gate Leakage = 0.0265291 W
            Runtime Dynamic = 0.0300767 W

          Floating Point Units (FPUs) (Count: 2 ):
            Area = 4.6585 mm^2
            Peak Dynamic = 0 W
            Subthreshold Leakage = 0.708126 W
            Subthreshold Leakage with power gating = 0.265547 W
            Gate Leakage = 0.0656156 W
            Runtime Dynamic = 0 W

          Complex ALUs (Mul/Div) (Count: 1 ):
            Area = 0.235435 mm^2
            Peak Dynamic = 0 W
            Subthreshold Leakage = 0.143151 W
            Subthreshold Leakage with power gating = 0.0536818 W
            Gate Leakage = 0.0132646 W
            Runtime Dynamic = 0 W

          Results Broadcast Bus:
            Area Overhead = 0.0352036 mm^2
            Peak Dynamic = 0.013571 W
            Subthreshold Leakage = 0.0535057 W
            Subthreshold Leakage with power gating = 0.0200646 W
            Gate Leakage = 0.00495789 W
            Runtime Dynamic = 0.0346845 W

    L2
    Area = 4.53318 mm^2
    Peak Dynamic = 0.0567712 W
    Subthreshold Leakage = 0.593748 W
    Subthreshold Leakage with power gating = 0.285481 W
    Gate Leakage = 0.015464 W
    Runtime Dynamic = 0.00898138 W

*****************************************************************************************
Core:
      Area = 25.6888 mm^2
      Peak Dynamic = 5.24755 W
      Subthreshold Leakage = 3.22341 W
      Subthreshold Leakage with power gating = 1.36419 W
      Gate Leakage = 0.280015 W
      Runtime Dynamic = 0.370626 W

      Instruction Fetch Unit:
        Area = 5.98523 mm^2
        Peak Dynamic = 2.92131 W
        Subthreshold Leakage = 0.703301 W
        Subthreshold Leakage with power gating = 0.305608 W
        Gate Leakage = 0.0682541 W
        Runtime Dynamic = 0.109869 W

          Instruction Cache:
            Area = 3.14635 mm^2
            Peak Dynamic = 0.592494 W
            Subthreshold Leakage = 0.261248 W
            Subthreshold Leakage with power gating = 0.1284 W
            Gate Leakage = 0.029931 W
            Runtime Dynamic = 0.0641307 W

          Branch Target Buffer:
            Area = 0.64954 mm^2
            Peak Dynamic = 0.177867 W
            Subthreshold Leakage = 0.057776 W
            Subthreshold Leakage with power gating = 0.030989 W
            Gate Leakage = 0.00272758 W
            Runtime Dynamic = 0.00356751 W

          Branch Predictor:
            Area = 0.138516 mm^2
            Peak Dynamic = 0.0597838 W
            Subthreshold Leakage = 0.014215 W
            Subthreshold Leakage with power gating = 0.0073517 W
            Gate Leakage = 0.000757657 W
            Runtime Dynamic = 0.00121866 W

              Global Predictor:
                Area = 0.0435221 mm^2
                Peak Dynamic = 0.0168831 W
                Subthreshold Leakage = 0.00540773 W
                Subthreshold Leakage with power gating = 0.00279284 W
                Gate Leakage = 0.000278362 W
                Runtime Dynamic = 0.000375662 W

              Local Predictor:
              L1_Local Predictor:
                Area = 0.0257064 mm^2
                Peak Dynamic = 0.0142575 W
                Subthreshold Leakage = 0.00273579 W
                Subthreshold Leakage with power gating = 0.00141387 W
                Gate Leakage = 0.000154548 W
                Runtime Dynamic = 0.000328161 W

              L2_Local Predictor:
                Area = 0.0151917 mm^2
                Peak Dynamic = 0.00527447 W
                Subthreshold Leakage = 0.00129084 W
                Subthreshold Leakage with power gating = 0.000681231 W
                Gate Leakage = 8.00196e-05 W
                Runtime Dynamic = 0.000127562 W

              Chooser:
                Area = 0.0435221 mm^2
                Peak Dynamic = 0.0168831 W
                Subthreshold Leakage = 0.00540773 W
                Subthreshold Leakage with power gating = 0.00279284 W
                Gate Leakage = 0.000278362 W
                Runtime Dynamic = 0.000375662 W

              RAS:
                Area = 0.0105732 mm^2
                Peak Dynamic = 0.0117602 W
                Subthreshold Leakage = 0.000663763 W
                Subthreshold Leakage with power gating = 0.000352154 W
                Gate Leakage = 4.63858e-05 W
                Runtime Dynamic = 0.000139176 W

          Instruction Buffer:
            Area = 0.0226323 mm^2
            Peak Dynamic = 0.606827 W
            Subthreshold Leakage = 0.00108112 W
            Subthreshold Leakage with power gating = 0.000499461 W
            Gate Leakage = 6.83558e-05 W
            Runtime Dynamic = 0.00931473 W

          Instruction Decoder:
            Area = 1.85799 mm^2
            Peak Dynamic = 1.37404 W
            Subthreshold Leakage = 0.31529 W
            Subthreshold Leakage with power gating = 0.118234 W
            Gate Leakage = 0.0222493 W
            Runtime Dynamic = 0.031637 W

      Load Store Unit:
        Area = 8.05439 mm^2
        Peak Dynamic = 1.52711 W
        Subthreshold Leakage = 0.453895 W
        Subthreshold Leakage with power gating = 0.212713 W
        Gate Leakage = 0.0437459 W
        Runtime Dynamic = 0.164868 W

          Data Cache:
            Area = 6.84535 mm^2
            Peak Dynamic = 1.4718 W
            Subthreshold Leakage = 0.375602 W
            Subthreshold Leakage with power gating = 0.178556 W
            Gate Leakage = 0.0279261 W
            Runtime Dynamic = 0.127425 W

          Load/Store Queue:
            Area = 0.322079 mm^2
            Peak Dynamic = 0.0187214 W
            Subthreshold Leakage = 0.0246015 W
            Subthreshold Leakage with power gating = 0.0140229 W
            Gate Leakage = 0.00329971 W
            Runtime Dynamic = 0.0374431 W

      Memory Management Unit:
        Area = 0.559739 mm^2
        Peak Dynamic = 0.660581 W
        Subthreshold Leakage = 0.0942255 W
        Subthreshold Leakage with power gating = 0.0432387 W
        Gate Leakage = 0.0173421 W
        Runtime Dynamic = 0.01187 W

          Itlb:
            Area = 0.301552 mm^2
            Peak Dynamic = 0.0368391 W
            Subthreshold Leakage = 0.0294516 W
            Subthreshold Leakage with power gating = 0.0167874 W
            Gate Leakage = 0.00393464 W
            Runtime Dynamic = 0.00466853 W

          Dtlb:
            Area = 0.0879726 mm^2
            Peak Dynamic = 0.00664429 W
            Subthreshold Leakage = 0.0110828 W
            Subthreshold Leakage with power gating = 0.00631717 W
            Gate Leakage = 0.00088729 W
            Runtime Dynamic = 0.00720147 W

      Execution Unit:
        Area = 6.14103 mm^2
        Peak Dynamic = 0.0751612 W
        Subthreshold Leakage = 1.25199 W
        Subthreshold Leakage with power gating = 0.469807 W
        Gate Leakage = 0.12351 W
        Runtime Dynamic = 0.0736772 W

          Register Files:
            Area = 0.570804 mm^2
            Peak Dynamic = 0.0094742 W
            Subthreshold Leakage = 0.00721681 W
            Subthreshold Leakage with power gating = 0.00301552 W
            Gate Leakage = 0.000622708 W
            Runtime Dynamic = 0.0109996 W

              Integer RF:
                Area = 0.362673 mm^2
                Peak Dynamic = 0.0094742 W
                Subthreshold Leakage = 0.00437174 W
                Subthreshold Leakage with power gating = 0.00175585 W
                Gate Leakage = 0.00038992 W
                Runtime Dynamic = 0.00968946 W

              Floating Point RF:
                Area = 0.208131 mm^2
                Peak Dynamic = 0 W
                Subthreshold Leakage = 0.00284507 W
                Subthreshold Leakage with power gating = 0.00125967 W
                Gate Leakage = 0.000232788 W
                Runtime Dynamic = 0.00131015 W

          Instruction Scheduler:
            Area = 0 mm^2
            Peak Dynamic = 0 W
            Subthreshold Leakage = 0 W
            Subthreshold Leakage with power gating = -nan W
            Gate Leakage = 0 W
            Runtime Dynamic = 0 W

          Integer ALUs (Count: 6 ):
            Area = 0.47087 mm^2
            Peak Dynamic = 0.0341692 W
            Subthreshold Leakage = 0.286303 W
            Subthreshold Leakage with power gating = 0.107364 W
            Gate Leakage = 0.0265291 W
            Runtime Dynamic = 0.029109 W

          Floating Point Units (FPUs) (Count: 2 ):
            Area = 4.6585 mm^2
            Peak Dynamic = 0 W
            Subthreshold Leakage = 0.708126 W
            Subthreshold Leakage with power gating = 0.265547 W
            Gate Leakage = 0.0656156 W
            Runtime Dynamic = 0 W

          Complex ALUs (Mul/Div) (Count: 1 ):
            Area = 0.235435 mm^2
            Peak Dynamic = 0 W
            Subthreshold Leakage = 0.143151 W
            Subthreshold Leakage with power gating = 0.0536818 W
            Gate Leakage = 0.0132646 W
            Runtime Dynamic = 0 W

          Results Broadcast Bus:
            Area Overhead = 0.0352036 mm^2
            Peak Dynamic = 0.0131346 W
            Subthreshold Leakage = 0.0535057 W
            Subthreshold Leakage with power gating = 0.0200646 W
            Gate Leakage = 0.00495789 W
            Runtime Dynamic = 0.0335685 W

    L2
    Area = 4.53318 mm^2
    Peak Dynamic = 0.0633974 W
    Subthreshold Leakage = 0.593748 W
    Subthreshold Leakage with power gating = 0.285481 W
    Gate Leakage = 0.015464 W
    Runtime Dynamic = 0.0103422 W

*****************************************************************************************
Core:
      Area = 25.6888 mm^2
      Peak Dynamic = 5.27456 W
      Subthreshold Leakage = 3.22341 W
      Subthreshold Leakage with power gating = 1.36419 W
      Gate Leakage = 0.280015 W
      Runtime Dynamic = 0.371936 W

      Instruction Fetch Unit:
        Area = 5.98523 mm^2
        Peak Dynamic = 2.94276 W
        Subthreshold Leakage = 0.703301 W
        Subthreshold Leakage with power gating = 0.305608 W
        Gate Leakage = 0.0682541 W
        Runtime Dynamic = 0.107914 W

          Instruction Cache:
            Area = 3.14635 mm^2
            Peak Dynamic = 0.610578 W
            Subthreshold Leakage = 0.261248 W
            Subthreshold Leakage with power gating = 0.1284 W
            Gate Leakage = 0.029931 W
            Runtime Dynamic = 0.0607701 W

          Branch Target Buffer:
            Area = 0.64954 mm^2
            Peak Dynamic = 0.177867 W
            Subthreshold Leakage = 0.057776 W
            Subthreshold Leakage with power gating = 0.030989 W
            Gate Leakage = 0.00272758 W
            Runtime Dynamic = 0.00368308 W

          Branch Predictor:
            Area = 0.138516 mm^2
            Peak Dynamic = 0.0597838 W
            Subthreshold Leakage = 0.014215 W
            Subthreshold Leakage with power gating = 0.0073517 W
            Gate Leakage = 0.000757657 W
            Runtime Dynamic = 0.00125976 W

              Global Predictor:
                Area = 0.0435221 mm^2
                Peak Dynamic = 0.0168831 W
                Subthreshold Leakage = 0.00540773 W
                Subthreshold Leakage with power gating = 0.00279284 W
                Gate Leakage = 0.000278362 W
                Runtime Dynamic = 0.000388431 W

              Local Predictor:
              L1_Local Predictor:
                Area = 0.0257064 mm^2
                Peak Dynamic = 0.0142575 W
                Subthreshold Leakage = 0.00273579 W
                Subthreshold Leakage with power gating = 0.00141387 W
                Gate Leakage = 0.000154548 W
                Runtime Dynamic = 0.000339476 W

              L2_Local Predictor:
                Area = 0.0151917 mm^2
                Peak Dynamic = 0.00527447 W
                Subthreshold Leakage = 0.00129084 W
                Subthreshold Leakage with power gating = 0.000681231 W
                Gate Leakage = 8.00196e-05 W
                Runtime Dynamic = 0.000132047 W

              Chooser:
                Area = 0.0435221 mm^2
                Peak Dynamic = 0.0168831 W
                Subthreshold Leakage = 0.00540773 W
                Subthreshold Leakage with power gating = 0.00279284 W
                Gate Leakage = 0.000278362 W
                Runtime Dynamic = 0.000388431 W

              RAS:
                Area = 0.0105732 mm^2
                Peak Dynamic = 0.0117602 W
                Subthreshold Leakage = 0.000663763 W
                Subthreshold Leakage with power gating = 0.000352154 W
                Gate Leakage = 4.63858e-05 W
                Runtime Dynamic = 0.000143421 W

          Instruction Buffer:
            Area = 0.0226323 mm^2
            Peak Dynamic = 0.606827 W
            Subthreshold Leakage = 0.00108112 W
            Subthreshold Leakage with power gating = 0.000499461 W
            Gate Leakage = 6.83558e-05 W
            Runtime Dynamic = 0.009599 W

          Instruction Decoder:
            Area = 1.85799 mm^2
            Peak Dynamic = 1.37404 W
            Subthreshold Leakage = 0.31529 W
            Subthreshold Leakage with power gating = 0.118234 W
            Gate Leakage = 0.0222493 W
            Runtime Dynamic = 0.0326025 W

      Load Store Unit:
        Area = 8.05439 mm^2
        Peak Dynamic = 1.53467 W
        Subthreshold Leakage = 0.453895 W
        Subthreshold Leakage with power gating = 0.212713 W
        Gate Leakage = 0.0437459 W
        Runtime Dynamic = 0.166776 W

          Data Cache:
            Area = 6.84535 mm^2
            Peak Dynamic = 1.47792 W
            Subthreshold Leakage = 0.375602 W
            Subthreshold Leakage with power gating = 0.178556 W
            Gate Leakage = 0.0279261 W
            Runtime Dynamic = 0.128357 W

          Load/Store Queue:
            Area = 0.322079 mm^2
            Peak Dynamic = 0.0192098 W
            Subthreshold Leakage = 0.0246015 W
            Subthreshold Leakage with power gating = 0.0140229 W
            Gate Leakage = 0.00329971 W
            Runtime Dynamic = 0.0384192 W

      Memory Management Unit:
        Area = 0.559739 mm^2
        Peak Dynamic = 0.662356 W
        Subthreshold Leakage = 0.0942255 W
        Subthreshold Leakage with power gating = 0.0432387 W
        Gate Leakage = 0.0173421 W
        Runtime Dynamic = 0.0121062 W

          Itlb:
            Area = 0.301552 mm^2
            Peak Dynamic = 0.0379635 W
            Subthreshold Leakage = 0.0294516 W
            Subthreshold Leakage with power gating = 0.0167874 W
            Gate Leakage = 0.00393464 W
            Runtime Dynamic = 0.00477824 W

          Dtlb:
            Area = 0.0879726 mm^2
            Peak Dynamic = 0.00681761 W
            Subthreshold Leakage = 0.0110828 W
            Subthreshold Leakage with power gating = 0.00631717 W
            Gate Leakage = 0.00088729 W
            Runtime Dynamic = 0.00732795 W

      Execution Unit:
        Area = 6.14103 mm^2
        Peak Dynamic = 0.0774528 W
        Subthreshold Leakage = 1.25199 W
        Subthreshold Leakage with power gating = 0.469807 W
        Gate Leakage = 0.12351 W
        Runtime Dynamic = 0.0759253 W

          Register Files:
            Area = 0.570804 mm^2
            Peak Dynamic = 0.00976306 W
            Subthreshold Leakage = 0.00721681 W
            Subthreshold Leakage with power gating = 0.00301552 W
            Gate Leakage = 0.000622708 W
            Runtime Dynamic = 0.0113353 W

              Integer RF:
                Area = 0.362673 mm^2
                Peak Dynamic = 0.00976306 W
                Subthreshold Leakage = 0.00437174 W
                Subthreshold Leakage with power gating = 0.00175585 W
                Gate Leakage = 0.00038992 W
                Runtime Dynamic = 0.00998515 W

              Floating Point RF:
                Area = 0.208131 mm^2
                Peak Dynamic = 0 W
                Subthreshold Leakage = 0.00284507 W
                Subthreshold Leakage with power gating = 0.00125967 W
                Gate Leakage = 0.000232788 W
                Runtime Dynamic = 0.00135013 W

          Instruction Scheduler:
            Area = 0 mm^2
            Peak Dynamic = 0 W
            Subthreshold Leakage = 0 W
            Subthreshold Leakage with power gating = -nan W
            Gate Leakage = 0 W
            Runtime Dynamic = 0 W

          Integer ALUs (Count: 6 ):
            Area = 0.47087 mm^2
            Peak Dynamic = 0.0352109 W
            Subthreshold Leakage = 0.286303 W
            Subthreshold Leakage with power gating = 0.107364 W
            Gate Leakage = 0.0265291 W
            Runtime Dynamic = 0.0299972 W

          Floating Point Units (FPUs) (Count: 2 ):
            Area = 4.6585 mm^2
            Peak Dynamic = 0 W
            Subthreshold Leakage = 0.708126 W
            Subthreshold Leakage with power gating = 0.265547 W
            Gate Leakage = 0.0656156 W
            Runtime Dynamic = 0 W

          Complex ALUs (Mul/Div) (Count: 1 ):
            Area = 0.235435 mm^2
            Peak Dynamic = 0 W
            Subthreshold Leakage = 0.143151 W
            Subthreshold Leakage with power gating = 0.0536818 W
            Gate Leakage = 0.0132646 W
            Runtime Dynamic = 0 W

          Results Broadcast Bus:
            Area Overhead = 0.0352036 mm^2
            Peak Dynamic = 0.0135351 W
            Subthreshold Leakage = 0.0535057 W
            Subthreshold Leakage with power gating = 0.0200646 W
            Gate Leakage = 0.00495789 W
            Runtime Dynamic = 0.0345928 W

    L2
    Area = 4.53318 mm^2
    Peak Dynamic = 0.0573208 W
    Subthreshold Leakage = 0.593748 W
    Subthreshold Leakage with power gating = 0.285481 W
    Gate Leakage = 0.015464 W
    Runtime Dynamic = 0.00921344 W

*****************************************************************************************
Core:
      Area = 25.6888 mm^2
      Peak Dynamic = 5.19998 W
      Subthreshold Leakage = 3.22341 W
      Subthreshold Leakage with power gating = 1.36419 W
      Gate Leakage = 0.280015 W
      Runtime Dynamic = 0.35617 W

      Instruction Fetch Unit:
        Area = 5.98523 mm^2
        Peak Dynamic = 2.894 W
        Subthreshold Leakage = 0.703301 W
        Subthreshold Leakage with power gating = 0.305608 W
        Gate Leakage = 0.0682541 W
        Runtime Dynamic = 0.105868 W

          Instruction Cache:
            Area = 3.14635 mm^2
            Peak Dynamic = 0.56947 W
            Subthreshold Leakage = 0.261248 W
            Subthreshold Leakage with power gating = 0.1284 W
            Gate Leakage = 0.029931 W
            Runtime Dynamic = 0.0618613 W

          Branch Target Buffer:
            Area = 0.64954 mm^2
            Peak Dynamic = 0.177867 W
            Subthreshold Leakage = 0.057776 W
            Subthreshold Leakage with power gating = 0.030989 W
            Gate Leakage = 0.00272758 W
            Runtime Dynamic = 0.00346451 W

          Branch Predictor:
            Area = 0.138516 mm^2
            Peak Dynamic = 0.0597838 W
            Subthreshold Leakage = 0.014215 W
            Subthreshold Leakage with power gating = 0.0073517 W
            Gate Leakage = 0.000757657 W
            Runtime Dynamic = 0.00118229 W

              Global Predictor:
                Area = 0.0435221 mm^2
                Peak Dynamic = 0.0168831 W
                Subthreshold Leakage = 0.00540773 W
                Subthreshold Leakage with power gating = 0.00279284 W
                Gate Leakage = 0.000278362 W
                Runtime Dynamic = 0.000364882 W

              Local Predictor:
              L1_Local Predictor:
                Area = 0.0257064 mm^2
                Peak Dynamic = 0.0142575 W
                Subthreshold Leakage = 0.00273579 W
                Subthreshold Leakage with power gating = 0.00141387 W
                Gate Leakage = 0.000154548 W
                Runtime Dynamic = 0.000318762 W

              L2_Local Predictor:
                Area = 0.0151917 mm^2
                Peak Dynamic = 0.00527447 W
                Subthreshold Leakage = 0.00129084 W
                Subthreshold Leakage with power gating = 0.000681231 W
                Gate Leakage = 8.00196e-05 W
                Runtime Dynamic = 0.000123917 W

              Chooser:
                Area = 0.0435221 mm^2
                Peak Dynamic = 0.0168831 W
                Subthreshold Leakage = 0.00540773 W
                Subthreshold Leakage with power gating = 0.00279284 W
                Gate Leakage = 0.000278362 W
                Runtime Dynamic = 0.000364882 W

              RAS:
                Area = 0.0105732 mm^2
                Peak Dynamic = 0.0117602 W
                Subthreshold Leakage = 0.000663763 W
                Subthreshold Leakage with power gating = 0.000352154 W
                Gate Leakage = 4.63858e-05 W
                Runtime Dynamic = 0.000133768 W

          Instruction Buffer:
            Area = 0.0226323 mm^2
            Peak Dynamic = 0.606827 W
            Subthreshold Leakage = 0.00108112 W
            Subthreshold Leakage with power gating = 0.000499461 W
            Gate Leakage = 6.83558e-05 W
            Runtime Dynamic = 0.00895268 W

          Instruction Decoder:
            Area = 1.85799 mm^2
            Peak Dynamic = 1.37404 W
            Subthreshold Leakage = 0.31529 W
            Subthreshold Leakage with power gating = 0.118234 W
            Gate Leakage = 0.0222493 W
            Runtime Dynamic = 0.0304073 W

      Load Store Unit:
        Area = 8.05439 mm^2
        Peak Dynamic = 1.51445 W
        Subthreshold Leakage = 0.453895 W
        Subthreshold Leakage with power gating = 0.212713 W
        Gate Leakage = 0.0437459 W
        Runtime Dynamic = 0.158099 W

          Data Cache:
            Area = 6.84535 mm^2
            Peak Dynamic = 1.46155 W
            Subthreshold Leakage = 0.375602 W
            Subthreshold Leakage with power gating = 0.178556 W
            Gate Leakage = 0.0279261 W
            Runtime Dynamic = 0.122292 W

          Load/Store Queue:
            Area = 0.322079 mm^2
            Peak Dynamic = 0.017904 W
            Subthreshold Leakage = 0.0246015 W
            Subthreshold Leakage with power gating = 0.0140229 W
            Gate Leakage = 0.00329971 W
            Runtime Dynamic = 0.0358074 W

      Memory Management Unit:
        Area = 0.559739 mm^2
        Peak Dynamic = 0.658061 W
        Subthreshold Leakage = 0.0942255 W
        Subthreshold Leakage with power gating = 0.0432387 W
        Gate Leakage = 0.0173421 W
        Runtime Dynamic = 0.0114086 W

          Itlb:
            Area = 0.301552 mm^2
            Peak Dynamic = 0.0354075 W
            Subthreshold Leakage = 0.0294516 W
            Subthreshold Leakage with power gating = 0.0167874 W
            Gate Leakage = 0.00393464 W
            Runtime Dynamic = 0.00451505 W

          Dtlb:
            Area = 0.0879726 mm^2
            Peak Dynamic = 0.00635417 W
            Subthreshold Leakage = 0.0110828 W
            Subthreshold Leakage with power gating = 0.00631717 W
            Gate Leakage = 0.00088729 W
            Runtime Dynamic = 0.00689351 W

      Execution Unit:
        Area = 6.14103 mm^2
        Peak Dynamic = 0.072238 W
        Subthreshold Leakage = 1.25199 W
        Subthreshold Leakage with power gating = 0.469807 W
        Gate Leakage = 0.12351 W
        Runtime Dynamic = 0.0706508 W

          Register Files:
            Area = 0.570804 mm^2
            Peak Dynamic = 0.00910573 W
            Subthreshold Leakage = 0.00721681 W
            Subthreshold Leakage with power gating = 0.00301552 W
            Gate Leakage = 0.000622708 W
            Runtime Dynamic = 0.010572 W

              Integer RF:
                Area = 0.362673 mm^2
                Peak Dynamic = 0.00910573 W
                Subthreshold Leakage = 0.00437174 W
                Subthreshold Leakage with power gating = 0.00175585 W
                Gate Leakage = 0.00038992 W
                Runtime Dynamic = 0.00931283 W

              Floating Point RF:
                Area = 0.208131 mm^2
                Peak Dynamic = 0 W
                Subthreshold Leakage = 0.00284507 W
                Subthreshold Leakage with power gating = 0.00125967 W
                Gate Leakage = 0.000232788 W
                Runtime Dynamic = 0.00125922 W

          Instruction Scheduler:
            Area = 0 mm^2
            Peak Dynamic = 0 W
            Subthreshold Leakage = 0 W
            Subthreshold Leakage with power gating = -nan W
            Gate Leakage = 0 W
            Runtime Dynamic = 0 W

          Integer ALUs (Count: 6 ):
            Area = 0.47087 mm^2
            Peak Dynamic = 0.0328402 W
            Subthreshold Leakage = 0.286303 W
            Subthreshold Leakage with power gating = 0.107364 W
            Gate Leakage = 0.0265291 W
            Runtime Dynamic = 0.0279021 W

          Floating Point Units (FPUs) (Count: 2 ):
            Area = 4.6585 mm^2
            Peak Dynamic = 0 W
            Subthreshold Leakage = 0.708126 W
            Subthreshold Leakage with power gating = 0.265547 W
            Gate Leakage = 0.0656156 W
            Runtime Dynamic = 0 W

          Complex ALUs (Mul/Div) (Count: 1 ):
            Area = 0.235435 mm^2
            Peak Dynamic = 0 W
            Subthreshold Leakage = 0.143151 W
            Subthreshold Leakage with power gating = 0.0536818 W
            Gate Leakage = 0.0132646 W
            Runtime Dynamic = 0 W

          Results Broadcast Bus:
            Area Overhead = 0.0352036 mm^2
            Peak Dynamic = 0.0126238 W
            Subthreshold Leakage = 0.0535057 W
            Subthreshold Leakage with power gating = 0.0200646 W
            Gate Leakage = 0.00495789 W
            Runtime Dynamic = 0.0321767 W

    L2
    Area = 4.53318 mm^2
    Peak Dynamic = 0.0612345 W
    Subthreshold Leakage = 0.593748 W
    Subthreshold Leakage with power gating = 0.285481 W
    Gate Leakage = 0.015464 W
    Runtime Dynamic = 0.0101435 W

*****************************************************************************************
Core:
      Area = 25.6888 mm^2
      Peak Dynamic = 5.20323 W
      Subthreshold Leakage = 3.22341 W
      Subthreshold Leakage with power gating = 1.36419 W
      Gate Leakage = 0.280015 W
      Runtime Dynamic = 0.35602 W

      Instruction Fetch Unit:
        Area = 5.98523 mm^2
        Peak Dynamic = 2.89619 W
        Subthreshold Leakage = 0.703301 W
        Subthreshold Leakage with power gating = 0.305608 W
        Gate Leakage = 0.0682541 W
        Runtime Dynamic = 0.105678 W

          Instruction Cache:
            Area = 3.14635 mm^2
            Peak Dynamic = 0.571322 W
            Subthreshold Leakage = 0.261248 W
            Subthreshold Leakage with power gating = 0.1284 W
            Gate Leakage = 0.029931 W
            Runtime Dynamic = 0.0615333 W

          Branch Target Buffer:
            Area = 0.64954 mm^2
            Peak Dynamic = 0.177867 W
            Subthreshold Leakage = 0.057776 W
            Subthreshold Leakage with power gating = 0.030989 W
            Gate Leakage = 0.00272758 W
            Runtime Dynamic = 0.00347177 W

          Branch Predictor:
            Area = 0.138516 mm^2
            Peak Dynamic = 0.0597838 W
            Subthreshold Leakage = 0.014215 W
            Subthreshold Leakage with power gating = 0.0073517 W
            Gate Leakage = 0.000757657 W
            Runtime Dynamic = 0.00118492 W

              Global Predictor:
                Area = 0.0435221 mm^2
                Peak Dynamic = 0.0168831 W
                Subthreshold Leakage = 0.00540773 W
                Subthreshold Leakage with power gating = 0.00279284 W
                Gate Leakage = 0.000278362 W
                Runtime Dynamic = 0.000365649 W

              Local Predictor:
              L1_Local Predictor:
                Area = 0.0257064 mm^2
                Peak Dynamic = 0.0142575 W
                Subthreshold Leakage = 0.00273579 W
                Subthreshold Leakage with power gating = 0.00141387 W
                Gate Leakage = 0.000154548 W
                Runtime Dynamic = 0.000319432 W

              L2_Local Predictor:
                Area = 0.0151917 mm^2
                Peak Dynamic = 0.00527447 W
                Subthreshold Leakage = 0.00129084 W
                Subthreshold Leakage with power gating = 0.000681231 W
                Gate Leakage = 8.00196e-05 W
                Runtime Dynamic = 0.000124178 W

              Chooser:
                Area = 0.0435221 mm^2
                Peak Dynamic = 0.0168831 W
                Subthreshold Leakage = 0.00540773 W
                Subthreshold Leakage with power gating = 0.00279284 W
                Gate Leakage = 0.000278362 W
                Runtime Dynamic = 0.000365649 W

              RAS:
                Area = 0.0105732 mm^2
                Peak Dynamic = 0.0117602 W
                Subthreshold Leakage = 0.000663763 W
                Subthreshold Leakage with power gating = 0.000352154 W
                Gate Leakage = 4.63858e-05 W
                Runtime Dynamic = 0.000134195 W

          Instruction Buffer:
            Area = 0.0226323 mm^2
            Peak Dynamic = 0.606827 W
            Subthreshold Leakage = 0.00108112 W
            Subthreshold Leakage with power gating = 0.000499461 W
            Gate Leakage = 6.83558e-05 W
            Runtime Dynamic = 0.00898181 W

          Instruction Decoder:
            Area = 1.85799 mm^2
            Peak Dynamic = 1.37404 W
            Subthreshold Leakage = 0.31529 W
            Subthreshold Leakage with power gating = 0.118234 W
            Gate Leakage = 0.0222493 W
            Runtime Dynamic = 0.0305063 W

      Load Store Unit:
        Area = 8.05439 mm^2
        Peak Dynamic = 1.51536 W
        Subthreshold Leakage = 0.453895 W
        Subthreshold Leakage with power gating = 0.212713 W
        Gate Leakage = 0.0437459 W
        Runtime Dynamic = 0.158202 W

          Data Cache:
            Area = 6.84535 mm^2
            Peak Dynamic = 1.46229 W
            Subthreshold Leakage = 0.375602 W
            Subthreshold Leakage with power gating = 0.178556 W
            Gate Leakage = 0.0279261 W
            Runtime Dynamic = 0.122276 W

          Load/Store Queue:
            Area = 0.322079 mm^2
            Peak Dynamic = 0.0179628 W
            Subthreshold Leakage = 0.0246015 W
            Subthreshold Leakage with power gating = 0.0140229 W
            Gate Leakage = 0.00329971 W
            Runtime Dynamic = 0.0359256 W

      Memory Management Unit:
        Area = 0.559739 mm^2
        Peak Dynamic = 0.658254 W
        Subthreshold Leakage = 0.0942255 W
        Subthreshold Leakage with power gating = 0.0432387 W
        Gate Leakage = 0.0173421 W
        Runtime Dynamic = 0.0114369 W

          Itlb:
            Area = 0.301552 mm^2
            Peak Dynamic = 0.0355227 W
            Subthreshold Leakage = 0.0294516 W
            Subthreshold Leakage with power gating = 0.0167874 W
            Gate Leakage = 0.00393464 W
            Runtime Dynamic = 0.00452258 W

          Dtlb:
            Area = 0.0879726 mm^2
            Peak Dynamic = 0.00637505 W
            Subthreshold Leakage = 0.0110828 W
            Subthreshold Leakage with power gating = 0.00631717 W
            Gate Leakage = 0.00088729 W
            Runtime Dynamic = 0.00691432 W

      Execution Unit:
        Area = 6.14103 mm^2
        Peak Dynamic = 0.0724731 W
        Subthreshold Leakage = 1.25199 W
        Subthreshold Leakage with power gating = 0.469807 W
        Gate Leakage = 0.12351 W
        Runtime Dynamic = 0.070892 W

          Register Files:
            Area = 0.570804 mm^2
            Peak Dynamic = 0.00913535 W
            Subthreshold Leakage = 0.00721681 W
            Subthreshold Leakage with power gating = 0.00301552 W
            Gate Leakage = 0.000622708 W
            Runtime Dynamic = 0.0106064 W

              Integer RF:
                Area = 0.362673 mm^2
                Peak Dynamic = 0.00913535 W
                Subthreshold Leakage = 0.00437174 W
                Subthreshold Leakage with power gating = 0.00175585 W
                Gate Leakage = 0.00038992 W
                Runtime Dynamic = 0.0093431 W

              Floating Point RF:
                Area = 0.208131 mm^2
                Peak Dynamic = 0 W
                Subthreshold Leakage = 0.00284507 W
                Subthreshold Leakage with power gating = 0.00125967 W
                Gate Leakage = 0.000232788 W
                Runtime Dynamic = 0.00126333 W

          Instruction Scheduler:
            Area = 0 mm^2
            Peak Dynamic = 0 W
            Subthreshold Leakage = 0 W
            Subthreshold Leakage with power gating = -nan W
            Gate Leakage = 0 W
            Runtime Dynamic = 0 W

          Integer ALUs (Count: 6 ):
            Area = 0.47087 mm^2
            Peak Dynamic = 0.0329471 W
            Subthreshold Leakage = 0.286303 W
            Subthreshold Leakage with power gating = 0.107364 W
            Gate Leakage = 0.0265291 W
            Runtime Dynamic = 0.0279981 W

          Floating Point Units (FPUs) (Count: 2 ):
            Area = 4.6585 mm^2
            Peak Dynamic = 0 W
            Subthreshold Leakage = 0.708126 W
            Subthreshold Leakage with power gating = 0.265547 W
            Gate Leakage = 0.0656156 W
            Runtime Dynamic = 0 W

          Complex ALUs (Mul/Div) (Count: 1 ):
            Area = 0.235435 mm^2
            Peak Dynamic = 0 W
            Subthreshold Leakage = 0.143151 W
            Subthreshold Leakage with power gating = 0.0536818 W
            Gate Leakage = 0.0132646 W
            Runtime Dynamic = 0 W

          Results Broadcast Bus:
            Area Overhead = 0.0352036 mm^2
            Peak Dynamic = 0.0126649 W
            Subthreshold Leakage = 0.0535057 W
            Subthreshold Leakage with power gating = 0.0200646 W
            Gate Leakage = 0.00495789 W
            Runtime Dynamic = 0.0322875 W

    L2
    Area = 4.53318 mm^2
    Peak Dynamic = 0.0609495 W
    Subthreshold Leakage = 0.593748 W
    Subthreshold Leakage with power gating = 0.285481 W
    Gate Leakage = 0.015464 W
    Runtime Dynamic = 0.00981119 W

*****************************************************************************************
Core:
      Area = 25.6888 mm^2
      Peak Dynamic = 5.23563 W
      Subthreshold Leakage = 3.22341 W
      Subthreshold Leakage with power gating = 1.36419 W
      Gate Leakage = 0.280015 W
      Runtime Dynamic = 0.366559 W

      Instruction Fetch Unit:
        Area = 5.98523 mm^2
        Peak Dynamic = 2.91473 W
        Subthreshold Leakage = 0.703301 W
        Subthreshold Leakage with power gating = 0.305608 W
        Gate Leakage = 0.0682541 W
        Runtime Dynamic = 0.108642 W

          Instruction Cache:
            Area = 3.14635 mm^2
            Peak Dynamic = 0.586949 W
            Subthreshold Leakage = 0.261248 W
            Subthreshold Leakage with power gating = 0.1284 W
            Gate Leakage = 0.029931 W
            Runtime Dynamic = 0.0633229 W

          Branch Target Buffer:
            Area = 0.64954 mm^2
            Peak Dynamic = 0.177867 W
            Subthreshold Leakage = 0.057776 W
            Subthreshold Leakage with power gating = 0.030989 W
            Gate Leakage = 0.00272758 W
            Runtime Dynamic = 0.00354099 W

          Branch Predictor:
            Area = 0.138516 mm^2
            Peak Dynamic = 0.0597838 W
            Subthreshold Leakage = 0.014215 W
            Subthreshold Leakage with power gating = 0.0073517 W
            Gate Leakage = 0.000757657 W
            Runtime Dynamic = 0.00120939 W

              Global Predictor:
                Area = 0.0435221 mm^2
                Peak Dynamic = 0.0168831 W
                Subthreshold Leakage = 0.00540773 W
                Subthreshold Leakage with power gating = 0.00279284 W
                Gate Leakage = 0.000278362 W
                Runtime Dynamic = 0.000372889 W

              Local Predictor:
              L1_Local Predictor:
                Area = 0.0257064 mm^2
                Peak Dynamic = 0.0142575 W
                Subthreshold Leakage = 0.00273579 W
                Subthreshold Leakage with power gating = 0.00141387 W
                Gate Leakage = 0.000154548 W
                Runtime Dynamic = 0.000325744 W

              L2_Local Predictor:
                Area = 0.0151917 mm^2
                Peak Dynamic = 0.00527447 W
                Subthreshold Leakage = 0.00129084 W
                Subthreshold Leakage with power gating = 0.000681231 W
                Gate Leakage = 8.00196e-05 W
                Runtime Dynamic = 0.000126625 W

              Chooser:
                Area = 0.0435221 mm^2
                Peak Dynamic = 0.0168831 W
                Subthreshold Leakage = 0.00540773 W
                Subthreshold Leakage with power gating = 0.00279284 W
                Gate Leakage = 0.000278362 W
                Runtime Dynamic = 0.000372889 W

              RAS:
                Area = 0.0105732 mm^2
                Peak Dynamic = 0.0117602 W
                Subthreshold Leakage = 0.000663763 W
                Subthreshold Leakage with power gating = 0.000352154 W
                Gate Leakage = 4.63858e-05 W
                Runtime Dynamic = 0.000137871 W

          Instruction Buffer:
            Area = 0.0226323 mm^2
            Peak Dynamic = 0.606827 W
            Subthreshold Leakage = 0.00108112 W
            Subthreshold Leakage with power gating = 0.000499461 W
            Gate Leakage = 6.83558e-05 W
            Runtime Dynamic = 0.00922751 W

          Instruction Decoder:
            Area = 1.85799 mm^2
            Peak Dynamic = 1.37404 W
            Subthreshold Leakage = 0.31529 W
            Subthreshold Leakage with power gating = 0.118234 W
            Gate Leakage = 0.0222493 W
            Runtime Dynamic = 0.0313408 W

      Load Store Unit:
        Area = 8.05439 mm^2
        Peak Dynamic = 1.52386 W
        Subthreshold Leakage = 0.453895 W
        Subthreshold Leakage with power gating = 0.212713 W
        Gate Leakage = 0.0437459 W
        Runtime Dynamic = 0.163019 W

          Data Cache:
            Area = 6.84535 mm^2
            Peak Dynamic = 1.46917 W
            Subthreshold Leakage = 0.375602 W
            Subthreshold Leakage with power gating = 0.178556 W
            Gate Leakage = 0.0279261 W
            Runtime Dynamic = 0.125995 W

          Load/Store Queue:
            Area = 0.322079 mm^2
            Peak Dynamic = 0.0185118 W
            Subthreshold Leakage = 0.0246015 W
            Subthreshold Leakage with power gating = 0.0140229 W
            Gate Leakage = 0.00329971 W
            Runtime Dynamic = 0.0370238 W

      Memory Management Unit:
        Area = 0.559739 mm^2
        Peak Dynamic = 0.659957 W
        Subthreshold Leakage = 0.0942255 W
        Subthreshold Leakage with power gating = 0.0432387 W
        Gate Leakage = 0.0173421 W
        Runtime Dynamic = 0.0117475 W

          Itlb:
            Area = 0.301552 mm^2
            Peak Dynamic = 0.0364943 W
            Subthreshold Leakage = 0.0294516 W
            Subthreshold Leakage with power gating = 0.0167874 W
            Gate Leakage = 0.00393464 W
            Runtime Dynamic = 0.00462585 W

          Dtlb:
            Area = 0.0879726 mm^2
            Peak Dynamic = 0.00656991 W
            Subthreshold Leakage = 0.0110828 W
            Subthreshold Leakage with power gating = 0.00631717 W
            Gate Leakage = 0.00088729 W
            Runtime Dynamic = 0.00712161 W

      Execution Unit:
        Area = 6.14103 mm^2
        Peak Dynamic = 0.0744562 W
        Subthreshold Leakage = 1.25199 W
        Subthreshold Leakage with power gating = 0.469807 W
        Gate Leakage = 0.12351 W
        Runtime Dynamic = 0.0729429 W

          Register Files:
            Area = 0.570804 mm^2
            Peak Dynamic = 0.00938533 W
            Subthreshold Leakage = 0.00721681 W
            Subthreshold Leakage with power gating = 0.00301552 W
            Gate Leakage = 0.000622708 W
            Runtime Dynamic = 0.0108966 W

              Integer RF:
                Area = 0.362673 mm^2
                Peak Dynamic = 0.00938533 W
                Subthreshold Leakage = 0.00437174 W
                Subthreshold Leakage with power gating = 0.00175585 W
                Gate Leakage = 0.00038992 W
                Runtime Dynamic = 0.00959868 W

              Floating Point RF:
                Area = 0.208131 mm^2
                Peak Dynamic = 0 W
                Subthreshold Leakage = 0.00284507 W
                Subthreshold Leakage with power gating = 0.00125967 W
                Gate Leakage = 0.000232788 W
                Runtime Dynamic = 0.00129788 W

          Instruction Scheduler:
            Area = 0 mm^2
            Peak Dynamic = 0 W
            Subthreshold Leakage = 0 W
            Subthreshold Leakage with power gating = -nan W
            Gate Leakage = 0 W
            Runtime Dynamic = 0 W

          Integer ALUs (Count: 6 ):
            Area = 0.47087 mm^2
            Peak Dynamic = 0.0338486 W
            Subthreshold Leakage = 0.286303 W
            Subthreshold Leakage with power gating = 0.107364 W
            Gate Leakage = 0.0265291 W
            Runtime Dynamic = 0.0288159 W

          Floating Point Units (FPUs) (Count: 2 ):
            Area = 4.6585 mm^2
            Peak Dynamic = 0 W
            Subthreshold Leakage = 0.708126 W
            Subthreshold Leakage with power gating = 0.265547 W
            Gate Leakage = 0.0656156 W
            Runtime Dynamic = 0 W

          Complex ALUs (Mul/Div) (Count: 1 ):
            Area = 0.235435 mm^2
            Peak Dynamic = 0 W
            Subthreshold Leakage = 0.143151 W
            Subthreshold Leakage with power gating = 0.0536818 W
            Gate Leakage = 0.0132646 W
            Runtime Dynamic = 0 W

          Results Broadcast Bus:
            Area Overhead = 0.0352036 mm^2
            Peak Dynamic = 0.0130114 W
            Subthreshold Leakage = 0.0535057 W
            Subthreshold Leakage with power gating = 0.0200646 W
            Gate Leakage = 0.00495789 W
            Runtime Dynamic = 0.0332305 W

    L2
    Area = 4.53318 mm^2
    Peak Dynamic = 0.0626289 W
    Subthreshold Leakage = 0.593748 W
    Subthreshold Leakage with power gating = 0.285481 W
    Gate Leakage = 0.015464 W
    Runtime Dynamic = 0.0102084 W

*****************************************************************************************
Core:
      Area = 25.6888 mm^2
      Peak Dynamic = 5.22575 W
      Subthreshold Leakage = 3.22341 W
      Subthreshold Leakage with power gating = 1.36419 W
      Gate Leakage = 0.280015 W
      Runtime Dynamic = 0.364458 W

      Instruction Fetch Unit:
        Area = 5.98523 mm^2
        Peak Dynamic = 2.90846 W
        Subthreshold Leakage = 0.703301 W
        Subthreshold Leakage with power gating = 0.305608 W
        Gate Leakage = 0.0682541 W
        Runtime Dynamic = 0.108584 W

          Instruction Cache:
            Area = 3.14635 mm^2
            Peak Dynamic = 0.581661 W
            Subthreshold Leakage = 0.261248 W
            Subthreshold Leakage with power gating = 0.1284 W
            Gate Leakage = 0.029931 W
            Runtime Dynamic = 0.0636622 W

          Branch Target Buffer:
            Area = 0.64954 mm^2
            Peak Dynamic = 0.177867 W
            Subthreshold Leakage = 0.057776 W
            Subthreshold Leakage with power gating = 0.030989 W
            Gate Leakage = 0.00272758 W
            Runtime Dynamic = 0.00351783 W

          Branch Predictor:
            Area = 0.138516 mm^2
            Peak Dynamic = 0.0597838 W
            Subthreshold Leakage = 0.014215 W
            Subthreshold Leakage with power gating = 0.0073517 W
            Gate Leakage = 0.000757657 W
            Runtime Dynamic = 0.00120126 W

              Global Predictor:
                Area = 0.0435221 mm^2
                Peak Dynamic = 0.0168831 W
                Subthreshold Leakage = 0.00540773 W
                Subthreshold Leakage with power gating = 0.00279284 W
                Gate Leakage = 0.000278362 W
                Runtime Dynamic = 0.000370485 W

              Local Predictor:
              L1_Local Predictor:
                Area = 0.0257064 mm^2
                Peak Dynamic = 0.0142575 W
                Subthreshold Leakage = 0.00273579 W
                Subthreshold Leakage with power gating = 0.00141387 W
                Gate Leakage = 0.000154548 W
                Runtime Dynamic = 0.000323653 W

              L2_Local Predictor:
                Area = 0.0151917 mm^2
                Peak Dynamic = 0.00527447 W
                Subthreshold Leakage = 0.00129084 W
                Subthreshold Leakage with power gating = 0.000681231 W
                Gate Leakage = 8.00196e-05 W
                Runtime Dynamic = 0.000125817 W

              Chooser:
                Area = 0.0435221 mm^2
                Peak Dynamic = 0.0168831 W
                Subthreshold Leakage = 0.00540773 W
                Subthreshold Leakage with power gating = 0.00279284 W
                Gate Leakage = 0.000278362 W
                Runtime Dynamic = 0.000370485 W

              RAS:
                Area = 0.0105732 mm^2
                Peak Dynamic = 0.0117602 W
                Subthreshold Leakage = 0.000663763 W
                Subthreshold Leakage with power gating = 0.000352154 W
                Gate Leakage = 4.63858e-05 W
                Runtime Dynamic = 0.000136638 W

          Instruction Buffer:
            Area = 0.0226323 mm^2
            Peak Dynamic = 0.606827 W
            Subthreshold Leakage = 0.00108112 W
            Subthreshold Leakage with power gating = 0.000499461 W
            Gate Leakage = 6.83558e-05 W
            Runtime Dynamic = 0.00914442 W

          Instruction Decoder:
            Area = 1.85799 mm^2
            Peak Dynamic = 1.37404 W
            Subthreshold Leakage = 0.31529 W
            Subthreshold Leakage with power gating = 0.118234 W
            Gate Leakage = 0.0222493 W
            Runtime Dynamic = 0.0310586 W

      Load Store Unit:
        Area = 8.05439 mm^2
        Peak Dynamic = 1.52091 W
        Subthreshold Leakage = 0.453895 W
        Subthreshold Leakage with power gating = 0.212713 W
        Gate Leakage = 0.0437459 W
        Runtime Dynamic = 0.161642 W

          Data Cache:
            Area = 6.84535 mm^2
            Peak Dynamic = 1.46678 W
            Subthreshold Leakage = 0.375602 W
            Subthreshold Leakage with power gating = 0.178556 W
            Gate Leakage = 0.0279261 W
            Runtime Dynamic = 0.125 W

          Load/Store Queue:
            Area = 0.322079 mm^2
            Peak Dynamic = 0.0183213 W
            Subthreshold Leakage = 0.0246015 W
            Subthreshold Leakage with power gating = 0.0140229 W
            Gate Leakage = 0.00329971 W
            Runtime Dynamic = 0.0366421 W

      Memory Management Unit:
        Area = 0.559739 mm^2
        Peak Dynamic = 0.659375 W
        Subthreshold Leakage = 0.0942255 W
        Subthreshold Leakage with power gating = 0.0432387 W
        Gate Leakage = 0.0173421 W
        Runtime Dynamic = 0.0116504 W

          Itlb:
            Area = 0.301552 mm^2
            Peak Dynamic = 0.0361655 W
            Subthreshold Leakage = 0.0294516 W
            Subthreshold Leakage with power gating = 0.0167874 W
            Gate Leakage = 0.00393464 W
            Runtime Dynamic = 0.00459352 W

          Dtlb:
            Area = 0.0879726 mm^2
            Peak Dynamic = 0.00650227 W
            Subthreshold Leakage = 0.0110828 W
            Subthreshold Leakage with power gating = 0.00631717 W
            Gate Leakage = 0.00088729 W
            Runtime Dynamic = 0.00705687 W

      Execution Unit:
        Area = 6.14103 mm^2
        Peak Dynamic = 0.0737853 W
        Subthreshold Leakage = 1.25199 W
        Subthreshold Leakage with power gating = 0.469807 W
        Gate Leakage = 0.12351 W
        Runtime Dynamic = 0.0722512 W

          Register Files:
            Area = 0.570804 mm^2
            Peak Dynamic = 0.00930077 W
            Subthreshold Leakage = 0.00721681 W
            Subthreshold Leakage with power gating = 0.00301552 W
            Gate Leakage = 0.000622708 W
            Runtime Dynamic = 0.0107985 W

              Integer RF:
                Area = 0.362673 mm^2
                Peak Dynamic = 0.00930077 W
                Subthreshold Leakage = 0.00437174 W
                Subthreshold Leakage with power gating = 0.00175585 W
                Gate Leakage = 0.00038992 W
                Runtime Dynamic = 0.00951228 W

              Floating Point RF:
                Area = 0.208131 mm^2
                Peak Dynamic = 0 W
                Subthreshold Leakage = 0.00284507 W
                Subthreshold Leakage with power gating = 0.00125967 W
                Gate Leakage = 0.000232788 W
                Runtime Dynamic = 0.00128619 W

          Instruction Scheduler:
            Area = 0 mm^2
            Peak Dynamic = 0 W
            Subthreshold Leakage = 0 W
            Subthreshold Leakage with power gating = -nan W
            Gate Leakage = 0 W
            Runtime Dynamic = 0 W

          Integer ALUs (Count: 6 ):
            Area = 0.47087 mm^2
            Peak Dynamic = 0.0335436 W
            Subthreshold Leakage = 0.286303 W
            Subthreshold Leakage with power gating = 0.107364 W
            Gate Leakage = 0.0265291 W
            Runtime Dynamic = 0.0285402 W

          Floating Point Units (FPUs) (Count: 2 ):
            Area = 4.6585 mm^2
            Peak Dynamic = 0 W
            Subthreshold Leakage = 0.708126 W
            Subthreshold Leakage with power gating = 0.265547 W
            Gate Leakage = 0.0656156 W
            Runtime Dynamic = 0 W

          Complex ALUs (Mul/Div) (Count: 1 ):
            Area = 0.235435 mm^2
            Peak Dynamic = 0 W
            Subthreshold Leakage = 0.143151 W
            Subthreshold Leakage with power gating = 0.0536818 W
            Gate Leakage = 0.0132646 W
            Runtime Dynamic = 0 W

          Results Broadcast Bus:
            Area Overhead = 0.0352036 mm^2
            Peak Dynamic = 0.0128942 W
            Subthreshold Leakage = 0.0535057 W
            Subthreshold Leakage with power gating = 0.0200646 W
            Gate Leakage = 0.00495789 W
            Runtime Dynamic = 0.0329126 W

    L2
    Area = 4.53318 mm^2
    Peak Dynamic = 0.0632244 W
    Subthreshold Leakage = 0.593748 W
    Subthreshold Leakage with power gating = 0.285481 W
    Gate Leakage = 0.015464 W
    Runtime Dynamic = 0.0103299 W

*****************************************************************************************
Core:
      Area = 25.6888 mm^2
      Peak Dynamic = 5.23779 W
      Subthreshold Leakage = 3.22341 W
      Subthreshold Leakage with power gating = 1.36419 W
      Gate Leakage = 0.280015 W
      Runtime Dynamic = 0.367346 W

      Instruction Fetch Unit:
        Area = 5.98523 mm^2
        Peak Dynamic = 2.91583 W
        Subthreshold Leakage = 0.703301 W
        Subthreshold Leakage with power gating = 0.305608 W
        Gate Leakage = 0.0682541 W
        Runtime Dynamic = 0.109147 W

          Instruction Cache:
            Area = 3.14635 mm^2
            Peak Dynamic = 0.587875 W
            Subthreshold Leakage = 0.261248 W
            Subthreshold Leakage with power gating = 0.1284 W
            Gate Leakage = 0.029931 W
            Runtime Dynamic = 0.0637591 W

          Branch Target Buffer:
            Area = 0.64954 mm^2
            Peak Dynamic = 0.177867 W
            Subthreshold Leakage = 0.057776 W
            Subthreshold Leakage with power gating = 0.030989 W
            Gate Leakage = 0.00272758 W
            Runtime Dynamic = 0.00354518 W

          Branch Predictor:
            Area = 0.138516 mm^2
            Peak Dynamic = 0.0597838 W
            Subthreshold Leakage = 0.014215 W
            Subthreshold Leakage with power gating = 0.0073517 W
            Gate Leakage = 0.000757657 W
            Runtime Dynamic = 0.00121089 W

              Global Predictor:
                Area = 0.0435221 mm^2
                Peak Dynamic = 0.0168831 W
                Subthreshold Leakage = 0.00540773 W
                Subthreshold Leakage with power gating = 0.00279284 W
                Gate Leakage = 0.000278362 W
                Runtime Dynamic = 0.000373334 W

              Local Predictor:
              L1_Local Predictor:
                Area = 0.0257064 mm^2
                Peak Dynamic = 0.0142575 W
                Subthreshold Leakage = 0.00273579 W
                Subthreshold Leakage with power gating = 0.00141387 W
                Gate Leakage = 0.000154548 W
                Runtime Dynamic = 0.000326134 W

              L2_Local Predictor:
                Area = 0.0151917 mm^2
                Peak Dynamic = 0.00527447 W
                Subthreshold Leakage = 0.00129084 W
                Subthreshold Leakage with power gating = 0.000681231 W
                Gate Leakage = 8.00196e-05 W
                Runtime Dynamic = 0.000126777 W

              Chooser:
                Area = 0.0435221 mm^2
                Peak Dynamic = 0.0168831 W
                Subthreshold Leakage = 0.00540773 W
                Subthreshold Leakage with power gating = 0.00279284 W
                Gate Leakage = 0.000278362 W
                Runtime Dynamic = 0.000373334 W

              RAS:
                Area = 0.0105732 mm^2
                Peak Dynamic = 0.0117602 W
                Subthreshold Leakage = 0.000663763 W
                Subthreshold Leakage with power gating = 0.000352154 W
                Gate Leakage = 4.63858e-05 W
                Runtime Dynamic = 0.000138085 W

          Instruction Buffer:
            Area = 0.0226323 mm^2
            Peak Dynamic = 0.606827 W
            Subthreshold Leakage = 0.00108112 W
            Subthreshold Leakage with power gating = 0.000499461 W
            Gate Leakage = 6.83558e-05 W
            Runtime Dynamic = 0.00924203 W

          Instruction Decoder:
            Area = 1.85799 mm^2
            Peak Dynamic = 1.37404 W
            Subthreshold Leakage = 0.31529 W
            Subthreshold Leakage with power gating = 0.118234 W
            Gate Leakage = 0.0222493 W
            Runtime Dynamic = 0.0313901 W

      Load Store Unit:
        Area = 8.05439 mm^2
        Peak Dynamic = 1.52423 W
        Subthreshold Leakage = 0.453895 W
        Subthreshold Leakage with power gating = 0.212713 W
        Gate Leakage = 0.0437459 W
        Runtime Dynamic = 0.163173 W

          Data Cache:
            Area = 6.84535 mm^2
            Peak Dynamic = 1.46947 W
            Subthreshold Leakage = 0.375602 W
            Subthreshold Leakage with power gating = 0.178556 W
            Gate Leakage = 0.0279261 W
            Runtime Dynamic = 0.126102 W

          Load/Store Queue:
            Area = 0.322079 mm^2
            Peak Dynamic = 0.0185357 W
            Subthreshold Leakage = 0.0246015 W
            Subthreshold Leakage with power gating = 0.0140229 W
            Gate Leakage = 0.00329971 W
            Runtime Dynamic = 0.037071 W

      Memory Management Unit:
        Area = 0.559739 mm^2
        Peak Dynamic = 0.660047 W
        Subthreshold Leakage = 0.0942255 W
        Subthreshold Leakage with power gating = 0.0432387 W
        Gate Leakage = 0.0173421 W
        Runtime Dynamic = 0.0117662 W

          Itlb:
            Area = 0.301552 mm^2
            Peak Dynamic = 0.0365519 W
            Subthreshold Leakage = 0.0294516 W
            Subthreshold Leakage with power gating = 0.0167874 W
            Gate Leakage = 0.00393464 W
            Runtime Dynamic = 0.00463338 W

          Dtlb:
            Area = 0.0879726 mm^2
            Peak Dynamic = 0.00657839 W
            Subthreshold Leakage = 0.0110828 W
            Subthreshold Leakage with power gating = 0.00631717 W
            Gate Leakage = 0.00088729 W
            Runtime Dynamic = 0.00713279 W

      Execution Unit:
        Area = 6.14103 mm^2
        Peak Dynamic = 0.0745737 W
        Subthreshold Leakage = 1.25199 W
        Subthreshold Leakage with power gating = 0.469807 W
        Gate Leakage = 0.12351 W
        Runtime Dynamic = 0.0730636 W

          Register Files:
            Area = 0.570804 mm^2
            Peak Dynamic = 0.00940014 W
            Subthreshold Leakage = 0.00721681 W
            Subthreshold Leakage with power gating = 0.00301552 W
            Gate Leakage = 0.000622708 W
            Runtime Dynamic = 0.0109138 W

              Integer RF:
                Area = 0.362673 mm^2
                Peak Dynamic = 0.00940014 W
                Subthreshold Leakage = 0.00437174 W
                Subthreshold Leakage with power gating = 0.00175585 W
                Gate Leakage = 0.00038992 W
                Runtime Dynamic = 0.00961384 W

              Floating Point RF:
                Area = 0.208131 mm^2
                Peak Dynamic = 0 W
                Subthreshold Leakage = 0.00284507 W
                Subthreshold Leakage with power gating = 0.00125967 W
                Gate Leakage = 0.000232788 W
                Runtime Dynamic = 0.00129994 W

          Instruction Scheduler:
            Area = 0 mm^2
            Peak Dynamic = 0 W
            Subthreshold Leakage = 0 W
            Subthreshold Leakage with power gating = -nan W
            Gate Leakage = 0 W
            Runtime Dynamic = 0 W

          Integer ALUs (Count: 6 ):
            Area = 0.47087 mm^2
            Peak Dynamic = 0.033902 W
            Subthreshold Leakage = 0.286303 W
            Subthreshold Leakage with power gating = 0.107364 W
            Gate Leakage = 0.0265291 W
            Runtime Dynamic = 0.0288639 W

          Floating Point Units (FPUs) (Count: 2 ):
            Area = 4.6585 mm^2
            Peak Dynamic = 0 W
            Subthreshold Leakage = 0.708126 W
            Subthreshold Leakage with power gating = 0.265547 W
            Gate Leakage = 0.0656156 W
            Runtime Dynamic = 0 W

          Complex ALUs (Mul/Div) (Count: 1 ):
            Area = 0.235435 mm^2
            Peak Dynamic = 0 W
            Subthreshold Leakage = 0.143151 W
            Subthreshold Leakage with power gating = 0.0536818 W
            Gate Leakage = 0.0132646 W
            Runtime Dynamic = 0 W

          Results Broadcast Bus:
            Area Overhead = 0.0352036 mm^2
            Peak Dynamic = 0.0130319 W
            Subthreshold Leakage = 0.0535057 W
            Subthreshold Leakage with power gating = 0.0200646 W
            Gate Leakage = 0.00495789 W
            Runtime Dynamic = 0.0332859 W

    L2
    Area = 4.53318 mm^2
    Peak Dynamic = 0.0631073 W
    Subthreshold Leakage = 0.593748 W
    Subthreshold Leakage with power gating = 0.285481 W
    Gate Leakage = 0.015464 W
    Runtime Dynamic = 0.0101966 W

*****************************************************************************************
Core:
      Area = 25.6888 mm^2
      Peak Dynamic = 5.18927 W
      Subthreshold Leakage = 3.22341 W
      Subthreshold Leakage with power gating = 1.36419 W
      Gate Leakage = 0.280015 W
      Runtime Dynamic = 0.351877 W

      Instruction Fetch Unit:
        Area = 5.98523 mm^2
        Peak Dynamic = 2.88892 W
        Subthreshold Leakage = 0.703301 W
        Subthreshold Leakage with power gating = 0.305608 W
        Gate Leakage = 0.0682541 W
        Runtime Dynamic = 0.104344 W

          Instruction Cache:
            Area = 3.14635 mm^2
            Peak Dynamic = 0.565191 W
            Subthreshold Leakage = 0.261248 W
            Subthreshold Leakage with power gating = 0.1284 W
            Gate Leakage = 0.029931 W
            Runtime Dynamic = 0.0606599 W

          Branch Target Buffer:
            Area = 0.64954 mm^2
            Peak Dynamic = 0.177867 W
            Subthreshold Leakage = 0.057776 W
            Subthreshold Leakage with power gating = 0.030989 W
            Gate Leakage = 0.00272758 W
            Runtime Dynamic = 0.00344413 W

          Branch Predictor:
            Area = 0.138516 mm^2
            Peak Dynamic = 0.0597838 W
            Subthreshold Leakage = 0.014215 W
            Subthreshold Leakage with power gating = 0.0073517 W
            Gate Leakage = 0.000757657 W
            Runtime Dynamic = 0.00117512 W

              Global Predictor:
                Area = 0.0435221 mm^2
                Peak Dynamic = 0.0168831 W
                Subthreshold Leakage = 0.00540773 W
                Subthreshold Leakage with power gating = 0.00279284 W
                Gate Leakage = 0.000278362 W
                Runtime Dynamic = 0.000362733 W

              Local Predictor:
              L1_Local Predictor:
                Area = 0.0257064 mm^2
                Peak Dynamic = 0.0142575 W
                Subthreshold Leakage = 0.00273579 W
                Subthreshold Leakage with power gating = 0.00141387 W
                Gate Leakage = 0.000154548 W
                Runtime Dynamic = 0.000316884 W

              L2_Local Predictor:
                Area = 0.0151917 mm^2
                Peak Dynamic = 0.00527447 W
                Subthreshold Leakage = 0.00129084 W
                Subthreshold Leakage with power gating = 0.000681231 W
                Gate Leakage = 8.00196e-05 W
                Runtime Dynamic = 0.000123187 W

              Chooser:
                Area = 0.0435221 mm^2
                Peak Dynamic = 0.0168831 W
                Subthreshold Leakage = 0.00540773 W
                Subthreshold Leakage with power gating = 0.00279284 W
                Gate Leakage = 0.000278362 W
                Runtime Dynamic = 0.000362733 W

              RAS:
                Area = 0.0105732 mm^2
                Peak Dynamic = 0.0117602 W
                Subthreshold Leakage = 0.000663763 W
                Subthreshold Leakage with power gating = 0.000352154 W
                Gate Leakage = 4.63858e-05 W
                Runtime Dynamic = 0.000132772 W

          Instruction Buffer:
            Area = 0.0226323 mm^2
            Peak Dynamic = 0.606827 W
            Subthreshold Leakage = 0.00108112 W
            Subthreshold Leakage with power gating = 0.000499461 W
            Gate Leakage = 6.83558e-05 W
            Runtime Dynamic = 0.00888547 W

          Instruction Decoder:
            Area = 1.85799 mm^2
            Peak Dynamic = 1.37404 W
            Subthreshold Leakage = 0.31529 W
            Subthreshold Leakage with power gating = 0.118234 W
            Gate Leakage = 0.0222493 W
            Runtime Dynamic = 0.030179 W

      Load Store Unit:
        Area = 8.05439 mm^2
        Peak Dynamic = 1.51186 W
        Subthreshold Leakage = 0.453895 W
        Subthreshold Leakage with power gating = 0.212713 W
        Gate Leakage = 0.0437459 W
        Runtime Dynamic = 0.156323 W

          Data Cache:
[...]
            Gate Leakage = 0 W
            Runtime Dynamic = 0 W

          Integer ALUs (Count: 6 ):
            Area = 0.47087 mm^2
            Peak Dynamic = 0.0350974 W
            Subthreshold Leakage = 0.286303 W
            Subthreshold Leakage with power gating = 0.107364 W
            Gate Leakage = 0.0265291 W
            Runtime Dynamic = 0.0298878 W

          Floating Point Units (FPUs) (Count: 2 ):
            Area = 4.6585 mm^2
            Peak Dynamic = 0 W
            Subthreshold Leakage = 0.708126 W
            Subthreshold Leakage with power gating = 0.265547 W
            Gate Leakage = 0.0656156 W
            Runtime Dynamic = 0 W

          Complex ALUs (Mul/Div) (Count: 1 ):
            Area = 0.235435 mm^2
            Peak Dynamic = 0 W
            Subthreshold Leakage = 0.143151 W
            Subthreshold Leakage with power gating = 0.0536818 W
            Gate Leakage = 0.0132646 W
            Runtime Dynamic = 0 W

          Results Broadcast Bus:
            Area Overhead = 0.0352036 mm^2
            Peak Dynamic = 0.0134914 W
            Subthreshold Leakage = 0.0535057 W
            Subthreshold Leakage with power gating = 0.0200646 W
            Gate Leakage = 0.00495789 W
            Runtime Dynamic = 0.0344666 W

    L2
    Area = 4.53318 mm^2
    Peak Dynamic = 0.0574684 W
    Subthreshold Leakage = 0.593748 W
    Subthreshold Leakage with power gating = 0.285481 W
    Gate Leakage = 0.015464 W
    Runtime Dynamic = 0.00906989 W

*****************************************************************************************
Core:
      Area = 25.6888 mm^2
      Peak Dynamic = 5.18445 W
      Subthreshold Leakage = 3.22341 W
      Subthreshold Leakage with power gating = 1.36419 W
      Gate Leakage = 0.280015 W
      Runtime Dynamic = 0.349901 W

      Instruction Fetch Unit:
        Area = 5.98523 mm^2
        Peak Dynamic = 2.8869 W
        Subthreshold Leakage = 0.703301 W
        Subthreshold Leakage with power gating = 0.305608 W
        Gate Leakage = 0.0682541 W
        Runtime Dynamic = 0.103362 W

          Instruction Cache:
            Area = 3.14635 mm^2
            Peak Dynamic = 0.563487 W
            Subthreshold Leakage = 0.261248 W
            Subthreshold Leakage with power gating = 0.1284 W
            Gate Leakage = 0.029931 W
            Runtime Dynamic = 0.0598062 W

          Branch Target Buffer:
            Area = 0.64954 mm^2
            Peak Dynamic = 0.177867 W
            Subthreshold Leakage = 0.057776 W
            Subthreshold Leakage with power gating = 0.030989 W
            Gate Leakage = 0.00272758 W
            Runtime Dynamic = 0.00343688 W

          Branch Predictor:
            Area = 0.138516 mm^2
            Peak Dynamic = 0.0597838 W
            Subthreshold Leakage = 0.014215 W
            Subthreshold Leakage with power gating = 0.0073517 W
            Gate Leakage = 0.000757657 W
            Runtime Dynamic = 0.00117255 W

              Global Predictor:
                Area = 0.0435221 mm^2
                Peak Dynamic = 0.0168831 W
                Subthreshold Leakage = 0.00540773 W
                Subthreshold Leakage with power gating = 0.00279284 W
                Gate Leakage = 0.000278362 W
                Runtime Dynamic = 0.000361976 W

              Local Predictor:
              L1_Local Predictor:
                Area = 0.0257064 mm^2
                Peak Dynamic = 0.0142575 W
                Subthreshold Leakage = 0.00273579 W
                Subthreshold Leakage with power gating = 0.00141387 W
                Gate Leakage = 0.000154548 W
                Runtime Dynamic = 0.000316225 W

              L2_Local Predictor:
                Area = 0.0151917 mm^2
                Peak Dynamic = 0.00527447 W
                Subthreshold Leakage = 0.00129084 W
                Subthreshold Leakage with power gating = 0.000681231 W
                Gate Leakage = 8.00196e-05 W
                Runtime Dynamic = 0.000122932 W

              Chooser:
                Area = 0.0435221 mm^2
                Peak Dynamic = 0.0168831 W
                Subthreshold Leakage = 0.00540773 W
                Subthreshold Leakage with power gating = 0.00279284 W
                Gate Leakage = 0.000278362 W
                Runtime Dynamic = 0.000361976 W

              RAS:
                Area = 0.0105732 mm^2
                Peak Dynamic = 0.0117602 W
                Subthreshold Leakage = 0.000663763 W
                Subthreshold Leakage with power gating = 0.000352154 W
                Gate Leakage = 4.63858e-05 W
                Runtime Dynamic = 0.000132369 W

          Instruction Buffer:
            Area = 0.0226323 mm^2
            Peak Dynamic = 0.606827 W
            Subthreshold Leakage = 0.00108112 W
            Subthreshold Leakage with power gating = 0.000499461 W
            Gate Leakage = 6.83558e-05 W
            Runtime Dynamic = 0.00885864 W

          Instruction Decoder:
            Area = 1.85799 mm^2
            Peak Dynamic = 1.37404 W
            Subthreshold Leakage = 0.31529 W
            Subthreshold Leakage with power gating = 0.118234 W
            Gate Leakage = 0.0222493 W
            Runtime Dynamic = 0.0300879 W

      Load Store Unit:
        Area = 8.05439 mm^2
        Peak Dynamic = 1.5108 W
        Subthreshold Leakage = 0.453895 W
        Subthreshold Leakage with power gating = 0.212713 W
        Gate Leakage = 0.0437459 W
        Runtime Dynamic = 0.155611 W

          Data Cache:
            Area = 6.84535 mm^2
            Peak Dynamic = 1.4586 W
            Subthreshold Leakage = 0.375602 W
            Subthreshold Leakage with power gating = 0.178556 W
            Gate Leakage = 0.0279261 W
            Runtime Dynamic = 0.120274 W

          Load/Store Queue:
            Area = 0.322079 mm^2
            Peak Dynamic = 0.0176687 W
            Subthreshold Leakage = 0.0246015 W
            Subthreshold Leakage with power gating = 0.0140229 W
            Gate Leakage = 0.00329971 W
            Runtime Dynamic = 0.0353371 W

      Memory Management Unit:
        Area = 0.559739 mm^2
        Peak Dynamic = 0.657375 W
        Subthreshold Leakage = 0.0942255 W
        Subthreshold Leakage with power gating = 0.0432387 W
        Gate Leakage = 0.0173421 W
        Runtime Dynamic = 0.0112547 W

          Itlb:
            Area = 0.301552 mm^2
            Peak Dynamic = 0.0350355 W
            Subthreshold Leakage = 0.0294516 W
            Subthreshold Leakage with power gating = 0.0167874 W
            Gate Leakage = 0.00393464 W
            Runtime Dynamic = 0.00447488 W

          Dtlb:
            Area = 0.0879726 mm^2
            Peak Dynamic = 0.00627066 W
            Subthreshold Leakage = 0.0110828 W
            Subthreshold Leakage with power gating = 0.00631717 W
            Gate Leakage = 0.00088729 W
            Runtime Dynamic = 0.00677983 W

      Execution Unit:
        Area = 6.14103 mm^2
        Peak Dynamic = 0.0714791 W
        Subthreshold Leakage = 1.25199 W
        Subthreshold Leakage with power gating = 0.469807 W
        Gate Leakage = 0.12351 W
        Runtime Dynamic = 0.069859 W

          Register Files:
            Area = 0.570804 mm^2
            Peak Dynamic = 0.00901006 W
            Subthreshold Leakage = 0.00721681 W
            Subthreshold Leakage with power gating = 0.00301552 W
            Gate Leakage = 0.000622708 W
            Runtime Dynamic = 0.010461 W

              Integer RF:
                Area = 0.362673 mm^2
                Peak Dynamic = 0.00901006 W
                Subthreshold Leakage = 0.00437174 W
                Subthreshold Leakage with power gating = 0.00175585 W
                Gate Leakage = 0.00038992 W
                Runtime Dynamic = 0.00921498 W

              Floating Point RF:
                Area = 0.208131 mm^2
                Peak Dynamic = 0 W
                Subthreshold Leakage = 0.00284507 W
                Subthreshold Leakage with power gating = 0.00125967 W
                Gate Leakage = 0.000232788 W
                Runtime Dynamic = 0.001246 W

          Instruction Scheduler:
            Area = 0 mm^2
            Peak Dynamic = 0 W
            Subthreshold Leakage = 0 W
            Subthreshold Leakage with power gating = -nan W
            Gate Leakage = 0 W
            Runtime Dynamic = 0 W

          Integer ALUs (Count: 6 ):
            Area = 0.47087 mm^2
            Peak Dynamic = 0.0324952 W
            Subthreshold Leakage = 0.286303 W
            Subthreshold Leakage with power gating = 0.107364 W
            Gate Leakage = 0.0265291 W
            Runtime Dynamic = 0.0275859 W

          Floating Point Units (FPUs) (Count: 2 ):
            Area = 4.6585 mm^2
            Peak Dynamic = 0 W
            Subthreshold Leakage = 0.708126 W
            Subthreshold Leakage with power gating = 0.265547 W
            Gate Leakage = 0.0656156 W
            Runtime Dynamic = 0 W

          Complex ALUs (Mul/Div) (Count: 1 ):
            Area = 0.235435 mm^2
            Peak Dynamic = 0 W
            Subthreshold Leakage = 0.143151 W
            Subthreshold Leakage with power gating = 0.0536818 W
            Gate Leakage = 0.0132646 W
            Runtime Dynamic = 0 W

          Results Broadcast Bus:
            Area Overhead = 0.0352036 mm^2
            Peak Dynamic = 0.0124912 W
            Subthreshold Leakage = 0.0535057 W
            Subthreshold Leakage with power gating = 0.0200646 W
            Gate Leakage = 0.00495789 W
            Runtime Dynamic = 0.0318121 W

    L2
    Area = 4.53318 mm^2
    Peak Dynamic = 0.0578908 W
    Subthreshold Leakage = 0.593748 W
    Subthreshold Leakage with power gating = 0.285481 W
    Gate Leakage = 0.015464 W
    Runtime Dynamic = 0.00981485 W

*****************************************************************************************
Core:
      Area = 25.6888 mm^2
      Peak Dynamic = 5.22121 W
      Subthreshold Leakage = 3.22341 W
      Subthreshold Leakage with power gating = 1.36419 W
      Gate Leakage = 0.280015 W
      Runtime Dynamic = 0.363354 W

      Instruction Fetch Unit:
        Area = 5.98523 mm^2
        Peak Dynamic = 2.90568 W
        Subthreshold Leakage = 0.703301 W
        Subthreshold Leakage with power gating = 0.305608 W
        Gate Leakage = 0.0682541 W
        Runtime Dynamic = 0.108441 W

          Instruction Cache:
            Area = 3.14635 mm^2
            Peak Dynamic = 0.579319 W
            Subthreshold Leakage = 0.261248 W
            Subthreshold Leakage with power gating = 0.1284 W
            Gate Leakage = 0.029931 W
            Runtime Dynamic = 0.0636946 W

          Branch Target Buffer:
            Area = 0.64954 mm^2
            Peak Dynamic = 0.177867 W
            Subthreshold Leakage = 0.057776 W
            Subthreshold Leakage with power gating = 0.030989 W
            Gate Leakage = 0.00272758 W
            Runtime Dynamic = 0.00350778 W

          Branch Predictor:
            Area = 0.138516 mm^2
            Peak Dynamic = 0.0597838 W
            Subthreshold Leakage = 0.014215 W
            Subthreshold Leakage with power gating = 0.0073517 W
            Gate Leakage = 0.000757657 W
            Runtime Dynamic = 0.0011977 W

              Global Predictor:
                Area = 0.0435221 mm^2
                Peak Dynamic = 0.0168831 W
                Subthreshold Leakage = 0.00540773 W
                Subthreshold Leakage with power gating = 0.00279284 W
                Gate Leakage = 0.000278362 W
                Runtime Dynamic = 0.000369434 W

              Local Predictor:
              L1_Local Predictor:
                Area = 0.0257064 mm^2
                Peak Dynamic = 0.0142575 W
                Subthreshold Leakage = 0.00273579 W
                Subthreshold Leakage with power gating = 0.00141387 W
                Gate Leakage = 0.000154548 W
                Runtime Dynamic = 0.000322738 W

              L2_Local Predictor:
                Area = 0.0151917 mm^2
                Peak Dynamic = 0.00527447 W
                Subthreshold Leakage = 0.00129084 W
                Subthreshold Leakage with power gating = 0.000681231 W
                Gate Leakage = 8.00196e-05 W
                Runtime Dynamic = 0.000125463 W

              Chooser:
                Area = 0.0435221 mm^2
                Peak Dynamic = 0.0168831 W
                Subthreshold Leakage = 0.00540773 W
                Subthreshold Leakage with power gating = 0.00279284 W
                Gate Leakage = 0.000278362 W
                Runtime Dynamic = 0.000369434 W

              RAS:
                Area = 0.0105732 mm^2
                Peak Dynamic = 0.0117602 W
                Subthreshold Leakage = 0.000663763 W
                Subthreshold Leakage with power gating = 0.000352154 W
                Gate Leakage = 4.63858e-05 W
                Runtime Dynamic = 0.000136092 W

          Instruction Buffer:
            Area = 0.0226323 mm^2
            Peak Dynamic = 0.606827 W
            Subthreshold Leakage = 0.00108112 W
            Subthreshold Leakage with power gating = 0.000499461 W
            Gate Leakage = 6.83558e-05 W
            Runtime Dynamic = 0.00910752 W

          Instruction Decoder:
            Area = 1.85799 mm^2
            Peak Dynamic = 1.37404 W
            Subthreshold Leakage = 0.31529 W
            Subthreshold Leakage with power gating = 0.118234 W
            Gate Leakage = 0.0222493 W
            Runtime Dynamic = 0.0309332 W

      Load Store Unit:
        Area = 8.05439 mm^2
        Peak Dynamic = 1.51963 W
        Subthreshold Leakage = 0.453895 W
        Subthreshold Leakage with power gating = 0.212713 W
        Gate Leakage = 0.0437459 W
        Runtime Dynamic = 0.160979 W

          Data Cache:
            Area = 6.84535 mm^2
            Peak Dynamic = 1.46574 W
            Subthreshold Leakage = 0.375602 W
            Subthreshold Leakage with power gating = 0.178556 W
            Gate Leakage = 0.0279261 W
            Runtime Dynamic = 0.124503 W

          Load/Store Queue:
            Area = 0.322079 mm^2
            Peak Dynamic = 0.0182385 W
            Subthreshold Leakage = 0.0246015 W
            Subthreshold Leakage with power gating = 0.0140229 W
            Gate Leakage = 0.00329971 W
            Runtime Dynamic = 0.0364767 W

      Memory Management Unit:
        Area = 0.559739 mm^2
        Peak Dynamic = 0.659119 W
        Subthreshold Leakage = 0.0942255 W
        Subthreshold Leakage with power gating = 0.0432387 W
        Gate Leakage = 0.0173421 W
        Runtime Dynamic = 0.0116047 W

          Itlb:
            Area = 0.301552 mm^2
            Peak Dynamic = 0.0360199 W
            Subthreshold Leakage = 0.0294516 W
            Subthreshold Leakage with power gating = 0.0167874 W
            Gate Leakage = 0.00393464 W
            Runtime Dynamic = 0.00457751 W

          Dtlb:
            Area = 0.0879726 mm^2
            Peak Dynamic = 0.00647292 W
            Subthreshold Leakage = 0.0110828 W
            Subthreshold Leakage with power gating = 0.00631717 W
            Gate Leakage = 0.00088729 W
            Runtime Dynamic = 0.00702715 W

      Execution Unit:
        Area = 6.14103 mm^2
        Peak Dynamic = 0.0734866 W
        Subthreshold Leakage = 1.25199 W
        Subthreshold Leakage with power gating = 0.469807 W
        Gate Leakage = 0.12351 W
        Runtime Dynamic = 0.0719412 W

          Register Files:
            Area = 0.570804 mm^2
            Peak Dynamic = 0.00926312 W
            Subthreshold Leakage = 0.00721681 W
            Subthreshold Leakage with power gating = 0.00301552 W
            Gate Leakage = 0.000622708 W
            Runtime Dynamic = 0.0107549 W

              Integer RF:
                Area = 0.362673 mm^2
                Peak Dynamic = 0.00926312 W
                Subthreshold Leakage = 0.00437174 W
                Subthreshold Leakage with power gating = 0.00175585 W
                Gate Leakage = 0.00038992 W
                Runtime Dynamic = 0.00947386 W

              Floating Point RF:
                Area = 0.208131 mm^2
                Peak Dynamic = 0 W
                Subthreshold Leakage = 0.00284507 W
                Subthreshold Leakage with power gating = 0.00125967 W
                Gate Leakage = 0.000232788 W
                Runtime Dynamic = 0.00128101 W

          Instruction Scheduler:
            Area = 0 mm^2
            Peak Dynamic = 0 W
            Subthreshold Leakage = 0 W
            Subthreshold Leakage with power gating = -nan W
            Gate Leakage = 0 W
            Runtime Dynamic = 0 W

          Integer ALUs (Count: 6 ):
            Area = 0.47087 mm^2
            Peak Dynamic = 0.0334079 W
            Subthreshold Leakage = 0.286303 W
            Subthreshold Leakage with power gating = 0.107364 W
            Gate Leakage = 0.0265291 W
            Runtime Dynamic = 0.0284165 W

          Floating Point Units (FPUs) (Count: 2 ):
            Area = 4.6585 mm^2
            Peak Dynamic = 0 W
            Subthreshold Leakage = 0.708126 W
            Subthreshold Leakage with power gating = 0.265547 W
            Gate Leakage = 0.0656156 W
            Runtime Dynamic = 0 W

          Complex ALUs (Mul/Div) (Count: 1 ):
            Area = 0.235435 mm^2
            Peak Dynamic = 0 W
            Subthreshold Leakage = 0.143151 W
            Subthreshold Leakage with power gating = 0.0536818 W
            Gate Leakage = 0.0132646 W
            Runtime Dynamic = 0 W

          Results Broadcast Bus:
            Area Overhead = 0.0352036 mm^2
            Peak Dynamic = 0.012842 W
            Subthreshold Leakage = 0.0535057 W
            Subthreshold Leakage with power gating = 0.0200646 W
            Gate Leakage = 0.00495789 W
            Runtime Dynamic = 0.0327699 W

    L2
    Area = 4.53318 mm^2
    Peak Dynamic = 0.0632956 W
    Subthreshold Leakage = 0.593748 W
    Subthreshold Leakage with power gating = 0.285481 W
    Gate Leakage = 0.015464 W
    Runtime Dynamic = 0.0103883 W

*****************************************************************************************
      L3
      Area = 61.9075 mm^2
      Peak Dynamic = 0.428748 W
      Subthreshold Leakage = 6.80085 W
      Subthreshold Leakage with power gating = 3.32364 W
      Gate Leakage = 0.0484137 W
      Runtime Dynamic = 0.232214 W

*****************************************************************************************
      L3
      Area = 61.9075 mm^2
      Peak Dynamic = 0.465843 W
      Subthreshold Leakage = 6.80085 W
      Subthreshold Leakage with power gating = 3.32364 W
      Gate Leakage = 0.0484137 W
      Runtime Dynamic = 0.258059 W

*****************************************************************************************
      L3
      Area = 61.9075 mm^2
      Peak Dynamic = 0.454223 W
      Subthreshold Leakage = 6.80085 W
      Subthreshold Leakage with power gating = 3.32364 W
      Gate Leakage = 0.0484137 W
      Runtime Dynamic = 0.250578 W

*****************************************************************************************
      L3
      Area = 61.9075 mm^2
      Peak Dynamic = 0.332515 W
      Subthreshold Leakage = 6.80085 W
      Subthreshold Leakage with power gating = 3.32364 W
      Gate Leakage = 0.0484137 W
      Runtime Dynamic = 0.182605 W

*****************************************************************************************
BUSES
      Area = 4.75126 mm^2
      Peak Dynamic = 0 W
      Subthreshold Leakage = 0.132917 W
      Subthreshold Leakage with power gating = 0.0498438 W
      Gate Leakage = 0.0127463 W
      Runtime Dynamic = 0 W

      Bus: 
        Area = 4.75126 mm^2
        Peak Dynamic = 0 W
        Subthreshold Leakage = 0.132917 W
        Subthreshold Leakage with power gating = 0.0498438 W
        Gate Leakage = 0.0127463 W
        Runtime Dynamic = 0 W

*****************************************************************************************
