McPAT (version 1.0 of Aug, 2013) is computing the target processor...
 

McPAT (version 1.0 of Aug, 2013) results  (current print level is 5)
*****************************************************************************************
  Technology 45 nm
  Using Long Channel Devices When Appropriate
  Interconnect metal projection= aggressive interconnect technology projection
  Core clock Rate(MHz) 2660

*****************************************************************************************
Processor: 
  Area = 774.599 mm^2
  Peak Power = 375.226 W
  Total Leakage = 133.026 W
  Peak Dynamic = 242.2 W
  Subthreshold Leakage = 126.85 W
  Subthreshold Leakage with power gating = 56.0923 W
  Gate Leakage = 6.17565 W
  Runtime Dynamic = 26.0106 W

  Total Cores: 16 cores 
  Device Type= ITRS high performance device type
    Area = 521.731 mm^2
    Peak Dynamic = 242.2 W
    Subthreshold Leakage = 99.5003 W
    Subthreshold Leakage with power gating = 41.3297 W
    Gate Leakage = 5.96795 W
    Runtime Dynamic = 26.0106 W

  Total L3s: 
  Device Type= ITRS high performance device type
    Area = 247.63 mm^2
    Peak Dynamic = 0 W
    Subthreshold Leakage = 27.2034 W
    Subthreshold Leakage with power gating = 13.2946 W
    Gate Leakage = 0.193655 W
    Runtime Dynamic = 1.15828e-05 W

  Total NoCs (Network/Bus): 
  Device Type= ITRS high performance device type
    Area = 5.23823 mm^2
    Peak Dynamic = 0 W
    Subthreshold Leakage = 0.14654 W
    Subthreshold Leakage with power gating = 0.0549525 W
    Gate Leakage = 0.0140527 W
    Runtime Dynamic = 0 W

*****************************************************************************************
Core:
      Area = 32.6082 mm^2
      Peak Dynamic = 15.1492 W
      Subthreshold Leakage = 6.21877 W
      Subthreshold Leakage with power gating = 2.58311 W
      Gate Leakage = 0.372997 W
      Runtime Dynamic = 1.63151 W

      Instruction Fetch Unit:
        Area = 5.86007 mm^2
        Peak Dynamic = 3.56872 W
        Subthreshold Leakage = 0.932587 W
        Subthreshold Leakage with power gating = 0.408542 W
        Gate Leakage = 0.0590479 W
        Runtime Dynamic = 0.155397 W

          Instruction Cache:
            Area = 3.14635 mm^2
            Peak Dynamic = 1.2868 W
            Subthreshold Leakage = 0.367022 W
            Subthreshold Leakage with power gating = 0.180386 W
            Gate Leakage = 0.029931 W
            Runtime Dynamic = 0.0544944 W

          Branch Target Buffer:
            Area = 0.64954 mm^2
            Peak Dynamic = 0.177867 W
            Subthreshold Leakage = 0.0811682 W
            Subthreshold Leakage with power gating = 0.0435357 W
            Gate Leakage = 0.00272758 W
            Runtime Dynamic = 0.00896515 W

          Branch Predictor:
            Area = 0.138516 mm^2
            Peak Dynamic = 0.0597838 W
            Subthreshold Leakage = 0.0199703 W
            Subthreshold Leakage with power gating = 0.0103282 W
            Gate Leakage = 0.000757657 W
            Runtime Dynamic = 0.00299738 W

              Global Predictor:
                Area = 0.0435221 mm^2
                Peak Dynamic = 0.0168831 W
                Subthreshold Leakage = 0.00759719 W
                Subthreshold Leakage with power gating = 0.0039236 W
                Gate Leakage = 0.000278362 W
                Runtime Dynamic = 0.000938413 W

              Local Predictor:
              L1_Local Predictor:
                Area = 0.0257064 mm^2
                Peak Dynamic = 0.0142575 W
                Subthreshold Leakage = 0.00384344 W
                Subthreshold Leakage with power gating = 0.00198631 W
                Gate Leakage = 0.000154548 W
                Runtime Dynamic = 0.00081826 W

              L2_Local Predictor:
                Area = 0.0151917 mm^2
                Peak Dynamic = 0.00527447 W
                Subthreshold Leakage = 0.00181347 W
                Subthreshold Leakage with power gating = 0.000957045 W
                Gate Leakage = 8.00196e-05 W
                Runtime Dynamic = 0.000317256 W

              Chooser:
                Area = 0.0435221 mm^2
                Peak Dynamic = 0.0168831 W
                Subthreshold Leakage = 0.00759719 W
                Subthreshold Leakage with power gating = 0.0039236 W
                Gate Leakage = 0.000278362 W
                Runtime Dynamic = 0.000938413 W

              RAS:
                Area = 0.0105732 mm^2
                Peak Dynamic = 0.0117602 W
                Subthreshold Leakage = 0.000932505 W
                Subthreshold Leakage with power gating = 0.000494733 W
                Gate Leakage = 4.63858e-05 W
                Runtime Dynamic = 0.00030229 W

          Instruction Buffer:
            Area = 0.0226323 mm^2
            Peak Dynamic = 0.606827 W
            Subthreshold Leakage = 0.00151885 W
            Subthreshold Leakage with power gating = 0.000701682 W
            Gate Leakage = 6.83558e-05 W
            Runtime Dynamic = 0.02023 W

          Instruction Decoder:
            Area = 1.85799 mm^2
            Peak Dynamic = 1.37404 W
            Subthreshold Leakage = 0.442943 W
            Subthreshold Leakage with power gating = 0.166104 W
            Gate Leakage = 0.0222493 W
            Runtime Dynamic = 0.0687101 W

      Renaming Unit:
        Area = 0.369768 mm^2
        Peak Dynamic = 4.56169 W
        Subthreshold Leakage = 0.070483 W
        Subthreshold Leakage with power gating = 0.0362779 W
        Gate Leakage = 0.00863632 W
        Runtime Dynamic = 0.044447 W

          Int Front End RAT:
            Area = 0.114751 mm^2
            Peak Dynamic = 0.86945 W
            Subthreshold Leakage = 0.00611897 W
            Subthreshold Leakage with power gating = 0.00348781 W
            Gate Leakage = 0.00038343 W
            Runtime Dynamic = 0.0404328 W

          FP Front End RAT:
            Area = 0.168486 mm^2
            Peak Dynamic = 3.33511 W
            Subthreshold Leakage = 0.0437281 W
            Subthreshold Leakage with power gating = 0.024925 W
            Gate Leakage = 0.00489731 W
            Runtime Dynamic = 0 W

          Free List:
            Area = 0.0414755 mm^2
            Peak Dynamic = 0.0401324 W
            Subthreshold Leakage = 0.000670426 W
            Subthreshold Leakage with power gating = 0.000377987 W
            Gate Leakage = 4.15911e-05 W
            Runtime Dynamic = 0.00401372 W

      Load Store Unit:
        Area = 8.80969 mm^2
        Peak Dynamic = 1.75215 W
        Subthreshold Leakage = 0.591622 W
        Subthreshold Leakage with power gating = 0.283406 W
        Gate Leakage = 0.0351387 W
        Runtime Dynamic = 0.300122 W

          Data Cache:
            Area = 6.84535 mm^2
            Peak Dynamic = 1.68365 W
            Subthreshold Leakage = 0.527675 W
            Subthreshold Leakage with power gating = 0.25085 W
            Gate Leakage = 0.0279261 W
            Runtime Dynamic = 0.21443 W

          LoadQ:
            Area = 0.0836782 mm^2
            Peak Dynamic = 0.0144464 W
            Subthreshold Leakage = 0.00941961 W
            Subthreshold Leakage with power gating = 0.00536918 W
            Gate Leakage = 0.00059896 W
            Runtime Dynamic = 0.0144465 W

          StoreQ:
            Area = 0.322079 mm^2
            Peak Dynamic = 0.0356223 W
            Subthreshold Leakage = 0.0345621 W
            Subthreshold Leakage with power gating = 0.0197004 W
            Gate Leakage = 0.00329971 W
            Runtime Dynamic = 0.071245 W

      Memory Management Unit:
        Area = 0.434579 mm^2
        Peak Dynamic = 0.260363 W
        Subthreshold Leakage = 0.0769113 W
        Subthreshold Leakage with power gating = 0.0399462 W
        Gate Leakage = 0.00813591 W
        Runtime Dynamic = 0.0215935 W

          Itlb:
            Area = 0.301552 mm^2
            Peak Dynamic = 0.0800085 W
            Subthreshold Leakage = 0.0413758 W
            Subthreshold Leakage with power gating = 0.0235842 W
            Gate Leakage = 0.00393464 W
            Runtime Dynamic = 0.00895045 W

          Dtlb:
            Area = 0.0879726 mm^2
            Peak Dynamic = 0.0126425 W
            Subthreshold Leakage = 0.0155699 W
            Subthreshold Leakage with power gating = 0.00887485 W
            Gate Leakage = 0.00088729 W
            Runtime Dynamic = 0.0126425 W

      Execution Unit:
        Area = 8.2042 mm^2
        Peak Dynamic = 5.00626 W
        Subthreshold Leakage = 1.83518 W
        Subthreshold Leakage with power gating = 0.709678 W
        Gate Leakage = 0.122718 W
        Runtime Dynamic = 1.10995 W

          Register Files:
            Area = 0.570804 mm^2
            Peak Dynamic = 0.020576 W
            Subthreshold Leakage = 0.0101387 W
            Subthreshold Leakage with power gating = 0.00423643 W
            Gate Leakage = 0.000622708 W
            Runtime Dynamic = 0.0238892 W

              Integer RF:
                Area = 0.362673 mm^2
                Peak Dynamic = 0.020576 W
                Subthreshold Leakage = 0.00614175 W
                Subthreshold Leakage with power gating = 0.00246675 W
                Gate Leakage = 0.00038992 W
                Runtime Dynamic = 0.0210438 W

              Floating Point RF:
                Area = 0.208131 mm^2
                Peak Dynamic = 0 W
                Subthreshold Leakage = 0.00399698 W
                Subthreshold Leakage with power gating = 0.00176968 W
                Gate Leakage = 0.000232788 W
                Runtime Dynamic = 0.00284539 W

          Instruction Scheduler:
            Area = 2.17927 mm^2
            Peak Dynamic = 4.84781 W
            Subthreshold Leakage = 0.114878 W
            Subthreshold Leakage with power gating = 0.0641291 W
            Gate Leakage = 0.00730101 W
            Runtime Dynamic = 0.297168 W

              Instruction Window:
                Area = 1.00996 mm^2
                Peak Dynamic = 2.07911 W
                Subthreshold Leakage = 0.0800117 W
                Subthreshold Leakage with power gating = 0.0455351 W
                Gate Leakage = 0.00529112 W
                Runtime Dynamic = 0.135922 W

              FP Instruction Window:
                Area = 0.328073 mm^2
                Peak Dynamic = 1.20978 W
                Subthreshold Leakage = 0.017004 W
                Subthreshold Leakage with power gating = 0.00962066 W
                Gate Leakage = 0.00115349 W
                Runtime Dynamic = 0.0784931 W

              ROB:
                Area = 0.841232 mm^2
                Peak Dynamic = 1.55892 W
                Subthreshold Leakage = 0.0178624 W
                Subthreshold Leakage with power gating = 0.00897339 W
                Gate Leakage = 0.000856399 W
                Runtime Dynamic = 0.0827522 W

          Integer ALUs (Count: 6 ):
            Area = 0.47087 mm^2
            Peak Dynamic = 0.0775868 W
            Subthreshold Leakage = 0.40222 W
            Subthreshold Leakage with power gating = 0.150833 W
            Gate Leakage = 0.0265291 W
            Runtime Dynamic = 0.16142 W

          Floating Point Units (FPUs) (Count: 2 ):
            Area = 4.6585 mm^2
            Peak Dynamic = 0 W
            Subthreshold Leakage = 0.994829 W
            Subthreshold Leakage with power gating = 0.373061 W
            Gate Leakage = 0.0656156 W
            Runtime Dynamic = 0.304033 W

          Complex ALUs (Mul/Div) (Count: 1 ):
            Area = 0.235435 mm^2
            Peak Dynamic = 0 W
            Subthreshold Leakage = 0.20111 W
            Subthreshold Leakage with power gating = 0.0754163 W
            Gate Leakage = 0.0132646 W
            Runtime Dynamic = 0.202689 W

          Results Broadcast Bus:
            Area Overhead = 0.0442632 mm^2
            Peak Dynamic = 0.04972 W
            Subthreshold Leakage = 0.0920413 W
            Subthreshold Leakage with power gating = 0.0345155 W
            Gate Leakage = 0.00607074 W
            Runtime Dynamic = 0.120753 W

    L2
    Area = 4.53318 mm^2
    Peak Dynamic = 0 W
    Subthreshold Leakage = 0.834142 W
    Subthreshold Leakage with power gating = 0.401066 W
    Gate Leakage = 0.015464 W
    Runtime Dynamic = 2.88685e-06 W

*****************************************************************************************
Core:
      Area = 32.6082 mm^2
      Peak Dynamic = 15.142 W
      Subthreshold Leakage = 6.21877 W
      Subthreshold Leakage with power gating = 2.58311 W
      Gate Leakage = 0.372997 W
      Runtime Dynamic = 1.62768 W

      Instruction Fetch Unit:
        Area = 5.86007 mm^2
        Peak Dynamic = 3.56484 W
        Subthreshold Leakage = 0.932587 W
        Subthreshold Leakage with power gating = 0.408542 W
        Gate Leakage = 0.0590479 W
        Runtime Dynamic = 0.154815 W

          Instruction Cache:
            Area = 3.14635 mm^2
            Peak Dynamic = 1.2831 W
            Subthreshold Leakage = 0.367022 W
            Subthreshold Leakage with power gating = 0.180386 W
            Gate Leakage = 0.029931 W
            Runtime Dynamic = 0.0542088 W

          Branch Target Buffer:
            Area = 0.64954 mm^2
            Peak Dynamic = 0.177867 W
            Subthreshold Leakage = 0.0811682 W
            Subthreshold Leakage with power gating = 0.0435357 W
            Gate Leakage = 0.00272758 W
            Runtime Dynamic = 0.00893586 W

          Branch Predictor:
            Area = 0.138516 mm^2
            Peak Dynamic = 0.0597838 W
            Subthreshold Leakage = 0.0199703 W
            Subthreshold Leakage with power gating = 0.0103282 W
            Gate Leakage = 0.000757657 W
            Runtime Dynamic = 0.00298567 W

              Global Predictor:
                Area = 0.0435221 mm^2
                Peak Dynamic = 0.0168831 W
                Subthreshold Leakage = 0.00759719 W
                Subthreshold Leakage with power gating = 0.0039236 W
                Gate Leakage = 0.000278362 W
                Runtime Dynamic = 0.0009347 W

              Local Predictor:
              L1_Local Predictor:
                Area = 0.0257064 mm^2
                Peak Dynamic = 0.0142575 W
                Subthreshold Leakage = 0.00384344 W
                Subthreshold Leakage with power gating = 0.00198631 W
                Gate Leakage = 0.000154548 W
                Runtime Dynamic = 0.000814849 W

              L2_Local Predictor:
                Area = 0.0151917 mm^2
                Peak Dynamic = 0.00527447 W
                Subthreshold Leakage = 0.00181347 W
                Subthreshold Leakage with power gating = 0.000957045 W
                Gate Leakage = 8.00196e-05 W
                Runtime Dynamic = 0.000315839 W

              Chooser:
                Area = 0.0435221 mm^2
                Peak Dynamic = 0.0168831 W
                Subthreshold Leakage = 0.00759719 W
                Subthreshold Leakage with power gating = 0.0039236 W
                Gate Leakage = 0.000278362 W
                Runtime Dynamic = 0.0009347 W

              RAS:
                Area = 0.0105732 mm^2
                Peak Dynamic = 0.0117602 W
                Subthreshold Leakage = 0.000932505 W
                Subthreshold Leakage with power gating = 0.000494733 W
                Gate Leakage = 4.63858e-05 W
                Runtime Dynamic = 0.000301416 W

          Instruction Buffer:
            Area = 0.0226323 mm^2
            Peak Dynamic = 0.606827 W
            Subthreshold Leakage = 0.00151885 W
            Subthreshold Leakage with power gating = 0.000701682 W
            Gate Leakage = 6.83558e-05 W
            Runtime Dynamic = 0.0201718 W

          Instruction Decoder:
            Area = 1.85799 mm^2
            Peak Dynamic = 1.37404 W
            Subthreshold Leakage = 0.442943 W
            Subthreshold Leakage with power gating = 0.166104 W
            Gate Leakage = 0.0222493 W
            Runtime Dynamic = 0.0685126 W

      Renaming Unit:
        Area = 0.369768 mm^2
        Peak Dynamic = 4.56169 W
        Subthreshold Leakage = 0.070483 W
        Subthreshold Leakage with power gating = 0.0362779 W
        Gate Leakage = 0.00863632 W
        Runtime Dynamic = 0.0443204 W

          Int Front End RAT:
            Area = 0.114751 mm^2
            Peak Dynamic = 0.86945 W
            Subthreshold Leakage = 0.00611897 W
            Subthreshold Leakage with power gating = 0.00348781 W
            Gate Leakage = 0.00038343 W
            Runtime Dynamic = 0.0403178 W

          FP Front End RAT:
            Area = 0.168486 mm^2
            Peak Dynamic = 3.33511 W
            Subthreshold Leakage = 0.0437281 W
            Subthreshold Leakage with power gating = 0.024925 W
            Gate Leakage = 0.00489731 W
            Runtime Dynamic = 0 W

          Free List:
            Area = 0.0414755 mm^2
            Peak Dynamic = 0.0401324 W
            Subthreshold Leakage = 0.000670426 W
            Subthreshold Leakage with power gating = 0.000377987 W
            Gate Leakage = 4.15911e-05 W
            Runtime Dynamic = 0.00400218 W

      Load Store Unit:
        Area = 8.80969 mm^2
        Peak Dynamic = 1.74961 W
        Subthreshold Leakage = 0.591622 W
        Subthreshold Leakage with power gating = 0.283406 W
        Gate Leakage = 0.0351387 W
        Runtime Dynamic = 0.298645 W

          Data Cache:
            Area = 6.84535 mm^2
            Peak Dynamic = 1.68145 W
            Subthreshold Leakage = 0.527675 W
            Subthreshold Leakage with power gating = 0.25085 W
            Gate Leakage = 0.0279261 W
            Runtime Dynamic = 0.213375 W

          LoadQ:
            Area = 0.0836782 mm^2
            Peak Dynamic = 0.0143753 W
            Subthreshold Leakage = 0.00941961 W
            Subthreshold Leakage with power gating = 0.00536918 W
            Gate Leakage = 0.00059896 W
            Runtime Dynamic = 0.0143754 W

          StoreQ:
            Area = 0.322079 mm^2
            Peak Dynamic = 0.035447 W
            Subthreshold Leakage = 0.0345621 W
            Subthreshold Leakage with power gating = 0.0197004 W
            Gate Leakage = 0.00329971 W
            Runtime Dynamic = 0.0708944 W

      Memory Management Unit:
        Area = 0.434579 mm^2
        Peak Dynamic = 0.260026 W
        Subthreshold Leakage = 0.0769113 W
        Subthreshold Leakage with power gating = 0.0399462 W
        Gate Leakage = 0.00813591 W
        Runtime Dynamic = 0.0214834 W

          Itlb:
            Area = 0.301552 mm^2
            Peak Dynamic = 0.0797785 W
            Subthreshold Leakage = 0.0413758 W
            Subthreshold Leakage with power gating = 0.0235842 W
            Gate Leakage = 0.00393464 W
            Runtime Dynamic = 0.00890266 W

          Dtlb:
            Area = 0.0879726 mm^2
            Peak Dynamic = 0.0125803 W
            Subthreshold Leakage = 0.0155699 W
            Subthreshold Leakage with power gating = 0.00887485 W
            Gate Leakage = 0.00088729 W
            Runtime Dynamic = 0.0125803 W

      Execution Unit:
        Area = 8.2042 mm^2
        Peak Dynamic = 5.0058 W
        Subthreshold Leakage = 1.83518 W
        Subthreshold Leakage with power gating = 0.709678 W
        Gate Leakage = 0.122718 W
        Runtime Dynamic = 1.10841 W

          Register Files:
            Area = 0.570804 mm^2
            Peak Dynamic = 0.0205167 W
            Subthreshold Leakage = 0.0101387 W
            Subthreshold Leakage with power gating = 0.00423643 W
            Gate Leakage = 0.000622708 W
            Runtime Dynamic = 0.0238205 W

              Integer RF:
                Area = 0.362673 mm^2
                Peak Dynamic = 0.0205167 W
                Subthreshold Leakage = 0.00614175 W
                Subthreshold Leakage with power gating = 0.00246675 W
                Gate Leakage = 0.00038992 W
                Runtime Dynamic = 0.0209833 W

              Floating Point RF:
                Area = 0.208131 mm^2
                Peak Dynamic = 0 W
                Subthreshold Leakage = 0.00399698 W
                Subthreshold Leakage with power gating = 0.00176968 W
                Gate Leakage = 0.000232788 W
                Runtime Dynamic = 0.00283722 W

          Instruction Scheduler:
            Area = 2.17927 mm^2
            Peak Dynamic = 4.84781 W
            Subthreshold Leakage = 0.114878 W
            Subthreshold Leakage with power gating = 0.0641291 W
            Gate Leakage = 0.00730101 W
            Runtime Dynamic = 0.296283 W

              Instruction Window:
                Area = 1.00996 mm^2
                Peak Dynamic = 2.07911 W
                Subthreshold Leakage = 0.0800117 W
                Subthreshold Leakage with power gating = 0.0455351 W
                Gate Leakage = 0.00529112 W
                Runtime Dynamic = 0.135532 W

              FP Instruction Window:
                Area = 0.328073 mm^2
                Peak Dynamic = 1.20978 W
                Subthreshold Leakage = 0.017004 W
                Subthreshold Leakage with power gating = 0.00962066 W
                Gate Leakage = 0.00115349 W
                Runtime Dynamic = 0.0782675 W

              ROB:
                Area = 0.841232 mm^2
                Peak Dynamic = 1.55892 W
                Subthreshold Leakage = 0.0178624 W
                Subthreshold Leakage with power gating = 0.00897339 W
                Gate Leakage = 0.000856399 W
                Runtime Dynamic = 0.0824842 W

          Integer ALUs (Count: 6 ):
            Area = 0.47087 mm^2
            Peak Dynamic = 0.0773634 W
            Subthreshold Leakage = 0.40222 W
            Subthreshold Leakage with power gating = 0.150833 W
            Gate Leakage = 0.0265291 W
            Runtime Dynamic = 0.161226 W

          Floating Point Units (FPUs) (Count: 2 ):
            Area = 4.6585 mm^2
            Peak Dynamic = 0 W
            Subthreshold Leakage = 0.994829 W
            Subthreshold Leakage with power gating = 0.373061 W
            Gate Leakage = 0.0656156 W
            Runtime Dynamic = 0.304033 W

          Complex ALUs (Mul/Div) (Count: 1 ):
            Area = 0.235435 mm^2
            Peak Dynamic = 0 W
            Subthreshold Leakage = 0.20111 W
            Subthreshold Leakage with power gating = 0.0754163 W
            Gate Leakage = 0.0132646 W
            Runtime Dynamic = 0.202689 W

          Results Broadcast Bus:
            Area Overhead = 0.0442632 mm^2
            Peak Dynamic = 0.0495769 W
            Subthreshold Leakage = 0.0920413 W
            Subthreshold Leakage with power gating = 0.0345155 W
            Gate Leakage = 0.00607074 W
            Runtime Dynamic = 0.120363 W

    L2
    Area = 4.53318 mm^2
    Peak Dynamic = 0 W
    Subthreshold Leakage = 0.834142 W
    Subthreshold Leakage with power gating = 0.401066 W
    Gate Leakage = 0.015464 W
    Runtime Dynamic = 2.88685e-06 W

*****************************************************************************************
Core:
      Area = 32.6082 mm^2
      Peak Dynamic = 15.141 W
      Subthreshold Leakage = 6.21877 W
      Subthreshold Leakage with power gating = 2.58311 W
      Gate Leakage = 0.372997 W
      Runtime Dynamic = 1.62741 W

      Instruction Fetch Unit:
        Area = 5.86007 mm^2
        Peak Dynamic = 3.56394 W
        Subthreshold Leakage = 0.932587 W
        Subthreshold Leakage with power gating = 0.408542 W
        Gate Leakage = 0.0590479 W
        Runtime Dynamic = 0.154742 W

          Instruction Cache:
            Area = 3.14635 mm^2
            Peak Dynamic = 1.28224 W
            Subthreshold Leakage = 0.367022 W
            Subthreshold Leakage with power gating = 0.180386 W
            Gate Leakage = 0.029931 W
            Runtime Dynamic = 0.0541982 W

          Branch Target Buffer:
            Area = 0.64954 mm^2
            Peak Dynamic = 0.177867 W
            Subthreshold Leakage = 0.0811682 W
            Subthreshold Leakage with power gating = 0.0435357 W
            Gate Leakage = 0.00272758 W
            Runtime Dynamic = 0.0089338 W

          Branch Predictor:
            Area = 0.138516 mm^2
            Peak Dynamic = 0.0597838 W
            Subthreshold Leakage = 0.0199703 W
            Subthreshold Leakage with power gating = 0.0103282 W
            Gate Leakage = 0.000757657 W
            Runtime Dynamic = 0.00298468 W

              Global Predictor:
                Area = 0.0435221 mm^2
                Peak Dynamic = 0.0168831 W
                Subthreshold Leakage = 0.00759719 W
                Subthreshold Leakage with power gating = 0.0039236 W
                Gate Leakage = 0.000278362 W
                Runtime Dynamic = 0.000934438 W

              Local Predictor:
              L1_Local Predictor:
                Area = 0.0257064 mm^2
                Peak Dynamic = 0.0142575 W
                Subthreshold Leakage = 0.00384344 W
                Subthreshold Leakage with power gating = 0.00198631 W
                Gate Leakage = 0.000154548 W
                Runtime Dynamic = 0.000814609 W

              L2_Local Predictor:
                Area = 0.0151917 mm^2
                Peak Dynamic = 0.00527447 W
                Subthreshold Leakage = 0.00181347 W
                Subthreshold Leakage with power gating = 0.000957045 W
                Gate Leakage = 8.00196e-05 W
                Runtime Dynamic = 0.000315739 W

              Chooser:
                Area = 0.0435221 mm^2
                Peak Dynamic = 0.0168831 W
                Subthreshold Leakage = 0.00759719 W
                Subthreshold Leakage with power gating = 0.0039236 W
                Gate Leakage = 0.000278362 W
                Runtime Dynamic = 0.000934438 W

              RAS:
                Area = 0.0105732 mm^2
                Peak Dynamic = 0.0117602 W
                Subthreshold Leakage = 0.000932505 W
                Subthreshold Leakage with power gating = 0.000494733 W
                Gate Leakage = 4.63858e-05 W
                Runtime Dynamic = 0.000301198 W

          Instruction Buffer:
            Area = 0.0226323 mm^2
            Peak Dynamic = 0.606827 W
            Subthreshold Leakage = 0.00151885 W
            Subthreshold Leakage with power gating = 0.000701682 W
            Gate Leakage = 6.83558e-05 W
            Runtime Dynamic = 0.0201582 W

          Instruction Decoder:
            Area = 1.85799 mm^2
            Peak Dynamic = 1.37404 W
            Subthreshold Leakage = 0.442943 W
            Subthreshold Leakage with power gating = 0.166104 W
            Gate Leakage = 0.0222493 W
            Runtime Dynamic = 0.0684664 W

      Renaming Unit:
        Area = 0.369768 mm^2
        Peak Dynamic = 4.56169 W
        Subthreshold Leakage = 0.070483 W
        Subthreshold Leakage with power gating = 0.0362779 W
        Gate Leakage = 0.00863632 W
        Runtime Dynamic = 0.0442892 W

          Int Front End RAT:
            Area = 0.114751 mm^2
            Peak Dynamic = 0.86945 W
            Subthreshold Leakage = 0.00611897 W
            Subthreshold Leakage with power gating = 0.00348781 W
            Gate Leakage = 0.00038343 W
            Runtime Dynamic = 0.0402893 W

          FP Front End RAT:
            Area = 0.168486 mm^2
            Peak Dynamic = 3.33511 W
            Subthreshold Leakage = 0.0437281 W
            Subthreshold Leakage with power gating = 0.024925 W
            Gate Leakage = 0.00489731 W
            Runtime Dynamic = 0 W

          Free List:
            Area = 0.0414755 mm^2
            Peak Dynamic = 0.0401324 W
            Subthreshold Leakage = 0.000670426 W
            Subthreshold Leakage with power gating = 0.000377987 W
            Gate Leakage = 4.15911e-05 W
            Runtime Dynamic = 0.00399949 W

      Load Store Unit:
        Area = 8.80969 mm^2
        Peak Dynamic = 1.74972 W
        Subthreshold Leakage = 0.591622 W
        Subthreshold Leakage with power gating = 0.283406 W
        Gate Leakage = 0.0351387 W
        Runtime Dynamic = 0.298705 W

          Data Cache:
            Area = 6.84535 mm^2
            Peak Dynamic = 1.68155 W
            Subthreshold Leakage = 0.527675 W
            Subthreshold Leakage with power gating = 0.25085 W
            Gate Leakage = 0.0279261 W
            Runtime Dynamic = 0.213417 W

          LoadQ:
            Area = 0.0836782 mm^2
            Peak Dynamic = 0.0143783 W
            Subthreshold Leakage = 0.00941961 W
            Subthreshold Leakage with power gating = 0.00536918 W
            Gate Leakage = 0.00059896 W
            Runtime Dynamic = 0.0143782 W

          StoreQ:
            Area = 0.322079 mm^2
            Peak Dynamic = 0.0354544 W
            Subthreshold Leakage = 0.0345621 W
            Subthreshold Leakage with power gating = 0.0197004 W
            Gate Leakage = 0.00329971 W
            Runtime Dynamic = 0.0709086 W

      Memory Management Unit:
        Area = 0.434579 mm^2
        Peak Dynamic = 0.259977 W
        Subthreshold Leakage = 0.0769113 W
        Subthreshold Leakage with power gating = 0.0399462 W
        Gate Leakage = 0.00813591 W
        Runtime Dynamic = 0.0214842 W

          Itlb:
            Area = 0.301552 mm^2
            Peak Dynamic = 0.0797249 W
            Subthreshold Leakage = 0.0413758 W
            Subthreshold Leakage with power gating = 0.0235842 W
            Gate Leakage = 0.00393464 W
            Runtime Dynamic = 0.00890093 W

          Dtlb:
            Area = 0.0879726 mm^2
            Peak Dynamic = 0.0125829 W
            Subthreshold Leakage = 0.0155699 W
            Subthreshold Leakage with power gating = 0.00887485 W
            Gate Leakage = 0.00088729 W
            Runtime Dynamic = 0.0125828 W

      Execution Unit:
        Area = 8.2042 mm^2
        Peak Dynamic = 5.0057 W
        Subthreshold Leakage = 1.83518 W
        Subthreshold Leakage with power gating = 0.709678 W
        Gate Leakage = 0.122718 W
        Runtime Dynamic = 1.10819 W

          Register Files:
            Area = 0.570804 mm^2
            Peak Dynamic = 0.0205032 W
            Subthreshold Leakage = 0.0101387 W
            Subthreshold Leakage with power gating = 0.00423643 W
            Gate Leakage = 0.000622708 W
            Runtime Dynamic = 0.0238046 W

              Integer RF:
                Area = 0.362673 mm^2
                Peak Dynamic = 0.0205032 W
                Subthreshold Leakage = 0.00614175 W
                Subthreshold Leakage with power gating = 0.00246675 W
                Gate Leakage = 0.00038992 W
                Runtime Dynamic = 0.0209692 W

              Floating Point RF:
                Area = 0.208131 mm^2
                Peak Dynamic = 0 W
                Subthreshold Leakage = 0.00399698 W
                Subthreshold Leakage with power gating = 0.00176968 W
                Gate Leakage = 0.000232788 W
                Runtime Dynamic = 0.00283536 W

          Instruction Scheduler:
            Area = 2.17927 mm^2
            Peak Dynamic = 4.84781 W
            Subthreshold Leakage = 0.114878 W
            Subthreshold Leakage with power gating = 0.0641291 W
            Gate Leakage = 0.00730101 W
            Runtime Dynamic = 0.296119 W

              Instruction Window:
                Area = 1.00996 mm^2
                Peak Dynamic = 2.07911 W
                Subthreshold Leakage = 0.0800117 W
                Subthreshold Leakage with power gating = 0.0455351 W
                Gate Leakage = 0.00529112 W
                Runtime Dynamic = 0.13544 W

              FP Instruction Window:
                Area = 0.328073 mm^2
                Peak Dynamic = 1.20978 W
                Subthreshold Leakage = 0.017004 W
                Subthreshold Leakage with power gating = 0.00962066 W
                Gate Leakage = 0.00115349 W
                Runtime Dynamic = 0.0782151 W

              ROB:
                Area = 0.841232 mm^2
                Peak Dynamic = 1.55892 W
                Subthreshold Leakage = 0.0178624 W
                Subthreshold Leakage with power gating = 0.00897339 W
                Gate Leakage = 0.000856399 W
                Runtime Dynamic = 0.0824639 W

          Integer ALUs (Count: 6 ):
            Area = 0.47087 mm^2
            Peak Dynamic = 0.0773122 W
            Subthreshold Leakage = 0.40222 W
            Subthreshold Leakage with power gating = 0.150833 W
            Gate Leakage = 0.0265291 W
            Runtime Dynamic = 0.161211 W

          Floating Point Units (FPUs) (Count: 2 ):
            Area = 4.6585 mm^2
            Peak Dynamic = 0 W
            Subthreshold Leakage = 0.994829 W
            Subthreshold Leakage with power gating = 0.373061 W
            Gate Leakage = 0.0656156 W
            Runtime Dynamic = 0.304033 W

          Complex ALUs (Mul/Div) (Count: 1 ):
            Area = 0.235435 mm^2
            Peak Dynamic = 0 W
            Subthreshold Leakage = 0.20111 W
            Subthreshold Leakage with power gating = 0.0754163 W
            Gate Leakage = 0.0132646 W
            Runtime Dynamic = 0.202689 W

          Results Broadcast Bus:
            Area Overhead = 0.0442632 mm^2
            Peak Dynamic = 0.0495441 W
            Subthreshold Leakage = 0.0920413 W
            Subthreshold Leakage with power gating = 0.0345155 W
            Gate Leakage = 0.00607074 W
            Runtime Dynamic = 0.120333 W

    L2
    Area = 4.53318 mm^2
    Peak Dynamic = 0 W
    Subthreshold Leakage = 0.834142 W
    Subthreshold Leakage with power gating = 0.401066 W
    Gate Leakage = 0.015464 W
    Runtime Dynamic = 2.88685e-06 W

*****************************************************************************************
Core:
      Area = 32.6082 mm^2
      Peak Dynamic = 15.1395 W
      Subthreshold Leakage = 6.21877 W
      Subthreshold Leakage with power gating = 2.58311 W
      Gate Leakage = 0.372997 W
      Runtime Dynamic = 1.62661 W

      Instruction Fetch Unit:
        Area = 5.86007 mm^2
        Peak Dynamic = 3.5632 W
        Subthreshold Leakage = 0.932587 W
        Subthreshold Leakage with power gating = 0.408542 W
        Gate Leakage = 0.0590479 W
        Runtime Dynamic = 0.154631 W

          Instruction Cache:
            Area = 3.14635 mm^2
            Peak Dynamic = 1.28154 W
            Subthreshold Leakage = 0.367022 W
            Subthreshold Leakage with power gating = 0.180386 W
            Gate Leakage = 0.029931 W
            Runtime Dynamic = 0.0541418 W

          Branch Target Buffer:
            Area = 0.64954 mm^2
            Peak Dynamic = 0.177867 W
            Subthreshold Leakage = 0.0811682 W
            Subthreshold Leakage with power gating = 0.0435357 W
            Gate Leakage = 0.00272758 W
            Runtime Dynamic = 0.00892943 W

          Branch Predictor:
            Area = 0.138516 mm^2
            Peak Dynamic = 0.0597838 W
            Subthreshold Leakage = 0.0199703 W
            Subthreshold Leakage with power gating = 0.0103282 W
            Gate Leakage = 0.000757657 W
            Runtime Dynamic = 0.00298313 W

              Global Predictor:
                Area = 0.0435221 mm^2
                Peak Dynamic = 0.0168831 W
                Subthreshold Leakage = 0.00759719 W
                Subthreshold Leakage with power gating = 0.0039236 W
                Gate Leakage = 0.000278362 W
                Runtime Dynamic = 0.000933959 W

              Local Predictor:
              L1_Local Predictor:
                Area = 0.0257064 mm^2
                Peak Dynamic = 0.0142575 W
                Subthreshold Leakage = 0.00384344 W
                Subthreshold Leakage with power gating = 0.00198631 W
                Gate Leakage = 0.000154548 W
                Runtime Dynamic = 0.000814185 W

              L2_Local Predictor:
                Area = 0.0151917 mm^2
                Peak Dynamic = 0.00527447 W
                Subthreshold Leakage = 0.00181347 W
                Subthreshold Leakage with power gating = 0.000957045 W
                Gate Leakage = 8.00196e-05 W
                Runtime Dynamic = 0.000315571 W

              Chooser:
                Area = 0.0435221 mm^2
                Peak Dynamic = 0.0168831 W
                Subthreshold Leakage = 0.00759719 W
                Subthreshold Leakage with power gating = 0.0039236 W
                Gate Leakage = 0.000278362 W
                Runtime Dynamic = 0.000933959 W

              RAS:
                Area = 0.0105732 mm^2
                Peak Dynamic = 0.0117602 W
                Subthreshold Leakage = 0.000932505 W
                Subthreshold Leakage with power gating = 0.000494733 W
                Gate Leakage = 4.63858e-05 W
                Runtime Dynamic = 0.000301023 W

          Instruction Buffer:
            Area = 0.0226323 mm^2
            Peak Dynamic = 0.606827 W
            Subthreshold Leakage = 0.00151885 W
            Subthreshold Leakage with power gating = 0.000701682 W
            Gate Leakage = 6.83558e-05 W
            Runtime Dynamic = 0.0201473 W

          Instruction Decoder:
            Area = 1.85799 mm^2
            Peak Dynamic = 1.37404 W
            Subthreshold Leakage = 0.442943 W
            Subthreshold Leakage with power gating = 0.166104 W
            Gate Leakage = 0.0222493 W
            Runtime Dynamic = 0.0684292 W

      Renaming Unit:
        Area = 0.369768 mm^2
        Peak Dynamic = 4.56169 W
        Subthreshold Leakage = 0.070483 W
        Subthreshold Leakage with power gating = 0.0362779 W
        Gate Leakage = 0.00863632 W
        Runtime Dynamic = 0.044265 W

          Int Front End RAT:
            Area = 0.114751 mm^2
            Peak Dynamic = 0.86945 W
            Subthreshold Leakage = 0.00611897 W
            Subthreshold Leakage with power gating = 0.00348781 W
            Gate Leakage = 0.00038343 W
            Runtime Dynamic = 0.0402672 W

          FP Front End RAT:
            Area = 0.168486 mm^2
            Peak Dynamic = 3.33511 W
            Subthreshold Leakage = 0.0437281 W
            Subthreshold Leakage with power gating = 0.024925 W
            Gate Leakage = 0.00489731 W
            Runtime Dynamic = 0 W

          Free List:
            Area = 0.0414755 mm^2
            Peak Dynamic = 0.0401324 W
            Subthreshold Leakage = 0.000670426 W
            Subthreshold Leakage with power gating = 0.000377987 W
            Gate Leakage = 4.15911e-05 W
            Runtime Dynamic = 0.00399731 W

      Load Store Unit:
        Area = 8.80969 mm^2
        Peak Dynamic = 1.74912 W
        Subthreshold Leakage = 0.591622 W
        Subthreshold Leakage with power gating = 0.283406 W
        Gate Leakage = 0.0351387 W
        Runtime Dynamic = 0.298354 W

          Data Cache:
            Area = 6.84535 mm^2
            Peak Dynamic = 1.68102 W
            Subthreshold Leakage = 0.527675 W
            Subthreshold Leakage with power gating = 0.25085 W
            Gate Leakage = 0.0279261 W
            Runtime Dynamic = 0.213167 W

          LoadQ:
            Area = 0.0836782 mm^2
            Peak Dynamic = 0.0143614 W
            Subthreshold Leakage = 0.00941961 W
            Subthreshold Leakage with power gating = 0.00536918 W
            Gate Leakage = 0.00059896 W
            Runtime Dynamic = 0.0143614 W

          StoreQ:
            Area = 0.322079 mm^2
            Peak Dynamic = 0.0354127 W
            Subthreshold Leakage = 0.0345621 W
            Subthreshold Leakage with power gating = 0.0197004 W
            Gate Leakage = 0.00329971 W
            Runtime Dynamic = 0.0708254 W

      Memory Management Unit:
        Area = 0.434579 mm^2
        Peak Dynamic = 0.259907 W
        Subthreshold Leakage = 0.0769113 W
        Subthreshold Leakage with power gating = 0.0399462 W
        Gate Leakage = 0.00813591 W
        Runtime Dynamic = 0.0214602 W

          Itlb:
            Area = 0.301552 mm^2
            Peak Dynamic = 0.0796813 W
            Subthreshold Leakage = 0.0413758 W
            Subthreshold Leakage with power gating = 0.0235842 W
            Gate Leakage = 0.00393464 W
            Runtime Dynamic = 0.00889168 W

          Dtlb:
            Area = 0.0879726 mm^2
            Peak Dynamic = 0.0125681 W
            Subthreshold Leakage = 0.0155699 W
            Subthreshold Leakage with power gating = 0.00887485 W
            Gate Leakage = 0.00088729 W
            Runtime Dynamic = 0.0125681 W

      Execution Unit:
        Area = 8.2042 mm^2
        Peak Dynamic = 5.00561 W
        Subthreshold Leakage = 1.83518 W
        Subthreshold Leakage with power gating = 0.709678 W
        Gate Leakage = 0.122718 W
        Runtime Dynamic = 1.1079 W

          Register Files:
            Area = 0.570804 mm^2
            Peak Dynamic = 0.0204921 W
            Subthreshold Leakage = 0.0101387 W
            Subthreshold Leakage with power gating = 0.00423643 W
            Gate Leakage = 0.000622708 W
            Runtime Dynamic = 0.0237915 W

              Integer RF:
                Area = 0.362673 mm^2
                Peak Dynamic = 0.0204921 W
                Subthreshold Leakage = 0.00614175 W
                Subthreshold Leakage with power gating = 0.00246675 W
                Gate Leakage = 0.00038992 W
                Runtime Dynamic = 0.0209577 W

              Floating Point RF:
                Area = 0.208131 mm^2
                Peak Dynamic = 0 W
                Subthreshold Leakage = 0.00399698 W
                Subthreshold Leakage with power gating = 0.00176968 W
                Gate Leakage = 0.000232788 W
                Runtime Dynamic = 0.00283376 W

          Instruction Scheduler:
            Area = 2.17927 mm^2
            Peak Dynamic = 4.84781 W
            Subthreshold Leakage = 0.114878 W
            Subthreshold Leakage with power gating = 0.0641291 W
            Gate Leakage = 0.00730101 W
            Runtime Dynamic = 0.295954 W

              Instruction Window:
                Area = 1.00996 mm^2
                Peak Dynamic = 2.07911 W
                Subthreshold Leakage = 0.0800117 W
                Subthreshold Leakage with power gating = 0.0455351 W
                Gate Leakage = 0.00529112 W
                Runtime Dynamic = 0.135367 W

              FP Instruction Window:
                Area = 0.328073 mm^2
                Peak Dynamic = 1.20978 W
                Subthreshold Leakage = 0.017004 W
                Subthreshold Leakage with power gating = 0.00962066 W
                Gate Leakage = 0.00115349 W
                Runtime Dynamic = 0.0781722 W

              ROB:
                Area = 0.841232 mm^2
                Peak Dynamic = 1.55892 W
                Subthreshold Leakage = 0.0178624 W
                Subthreshold Leakage with power gating = 0.00897339 W
                Gate Leakage = 0.000856399 W
                Runtime Dynamic = 0.0824155 W

          Integer ALUs (Count: 6 ):
            Area = 0.47087 mm^2
            Peak Dynamic = 0.0772703 W
            Subthreshold Leakage = 0.40222 W
            Subthreshold Leakage with power gating = 0.150833 W
            Gate Leakage = 0.0265291 W
            Runtime Dynamic = 0.161174 W

          Floating Point Units (FPUs) (Count: 2 ):
            Area = 4.6585 mm^2
            Peak Dynamic = 0 W
            Subthreshold Leakage = 0.994829 W
            Subthreshold Leakage with power gating = 0.373061 W
            Gate Leakage = 0.0656156 W
            Runtime Dynamic = 0.304033 W

          Complex ALUs (Mul/Div) (Count: 1 ):
            Area = 0.235435 mm^2
            Peak Dynamic = 0 W
            Subthreshold Leakage = 0.20111 W
            Subthreshold Leakage with power gating = 0.0754163 W
            Gate Leakage = 0.0132646 W
            Runtime Dynamic = 0.202689 W

          Results Broadcast Bus:
            Area Overhead = 0.0442632 mm^2
            Peak Dynamic = 0.0495172 W
            Subthreshold Leakage = 0.0920413 W
            Subthreshold Leakage with power gating = 0.0345155 W
            Gate Leakage = 0.00607074 W
            Runtime Dynamic = 0.120259 W

    L2
    Area = 4.53318 mm^2
    Peak Dynamic = 0 W
    Subthreshold Leakage = 0.834142 W
    Subthreshold Leakage with power gating = 0.401066 W
    Gate Leakage = 0.015464 W
    Runtime Dynamic = 2.88685e-06 W

*****************************************************************************************
Core:
      Area = 32.6082 mm^2
      Peak Dynamic = 15.1442 W
      Subthreshold Leakage = 6.21877 W
      Subthreshold Leakage with power gating = 2.58311 W
      Gate Leakage = 0.372997 W
      Runtime Dynamic = 1.62907 W

      Instruction Fetch Unit:
        Area = 5.86007 mm^2
        Peak Dynamic = 3.56568 W
        Subthreshold Leakage = 0.932587 W
        Subthreshold Leakage with power gating = 0.408542 W
        Gate Leakage = 0.0590479 W
        Runtime Dynamic = 0.154991 W

          Instruction Cache:
            Area = 3.14635 mm^2
            Peak Dynamic = 1.2839 W
            Subthreshold Leakage = 0.367022 W
            Subthreshold Leakage with power gating = 0.180386 W
            Gate Leakage = 0.029931 W
            Runtime Dynamic = 0.0543146 W

          Branch Target Buffer:
            Area = 0.64954 mm^2
            Peak Dynamic = 0.177867 W
            Subthreshold Leakage = 0.0811682 W
            Subthreshold Leakage with power gating = 0.0435357 W
            Gate Leakage = 0.00272758 W
            Runtime Dynamic = 0.00894665 W

          Branch Predictor:
            Area = 0.138516 mm^2
            Peak Dynamic = 0.0597838 W
            Subthreshold Leakage = 0.0199703 W
            Subthreshold Leakage with power gating = 0.0103282 W
            Gate Leakage = 0.000757657 W
            Runtime Dynamic = 0.0029897 W

              Global Predictor:
                Area = 0.0435221 mm^2
                Peak Dynamic = 0.0168831 W
                Subthreshold Leakage = 0.00759719 W
                Subthreshold Leakage with power gating = 0.0039236 W
                Gate Leakage = 0.000278362 W
                Runtime Dynamic = 0.000936025 W

              Local Predictor:
              L1_Local Predictor:
                Area = 0.0257064 mm^2
                Peak Dynamic = 0.0142575 W
                Subthreshold Leakage = 0.00384344 W
                Subthreshold Leakage with power gating = 0.00198631 W
                Gate Leakage = 0.000154548 W
                Runtime Dynamic = 0.000816056 W

              L2_Local Predictor:
                Area = 0.0151917 mm^2
                Peak Dynamic = 0.00527447 W
                Subthreshold Leakage = 0.00181347 W
                Subthreshold Leakage with power gating = 0.000957045 W
                Gate Leakage = 8.00196e-05 W
                Runtime Dynamic = 0.000316335 W

              Chooser:
                Area = 0.0435221 mm^2
                Peak Dynamic = 0.0168831 W
                Subthreshold Leakage = 0.00759719 W
                Subthreshold Leakage with power gating = 0.0039236 W
                Gate Leakage = 0.000278362 W
                Runtime Dynamic = 0.000936025 W

              RAS:
                Area = 0.0105732 mm^2
                Peak Dynamic = 0.0117602 W
                Subthreshold Leakage = 0.000932505 W
                Subthreshold Leakage with power gating = 0.000494733 W
                Gate Leakage = 4.63858e-05 W
                Runtime Dynamic = 0.000301591 W

          Instruction Buffer:
            Area = 0.0226323 mm^2
            Peak Dynamic = 0.606827 W
            Subthreshold Leakage = 0.00151885 W
            Subthreshold Leakage with power gating = 0.000701682 W
            Gate Leakage = 6.83558e-05 W
            Runtime Dynamic = 0.0201844 W

          Instruction Decoder:
            Area = 1.85799 mm^2
            Peak Dynamic = 1.37404 W
            Subthreshold Leakage = 0.442943 W
            Subthreshold Leakage with power gating = 0.166104 W
            Gate Leakage = 0.0222493 W
            Runtime Dynamic = 0.0685553 W

      Renaming Unit:
        Area = 0.369768 mm^2
        Peak Dynamic = 4.56169 W
        Subthreshold Leakage = 0.070483 W
        Subthreshold Leakage with power gating = 0.0362779 W
        Gate Leakage = 0.00863632 W
        Runtime Dynamic = 0.0443462 W

          Int Front End RAT:
            Area = 0.114751 mm^2
            Peak Dynamic = 0.86945 W
            Subthreshold Leakage = 0.00611897 W
            Subthreshold Leakage with power gating = 0.00348781 W
            Gate Leakage = 0.00038343 W
            Runtime Dynamic = 0.0403411 W

          FP Front End RAT:
            Area = 0.168486 mm^2
            Peak Dynamic = 3.33511 W
            Subthreshold Leakage = 0.0437281 W
            Subthreshold Leakage with power gating = 0.024925 W
            Gate Leakage = 0.00489731 W
            Runtime Dynamic = 0 W

          Free List:
            Area = 0.0414755 mm^2
            Peak Dynamic = 0.0401324 W
            Subthreshold Leakage = 0.000670426 W
            Subthreshold Leakage with power gating = 0.000377987 W
            Gate Leakage = 4.15911e-05 W
            Runtime Dynamic = 0.00400468 W

      Load Store Unit:
        Area = 8.80969 mm^2
        Peak Dynamic = 1.75077 W
        Subthreshold Leakage = 0.591622 W
        Subthreshold Leakage with power gating = 0.283406 W
        Gate Leakage = 0.0351387 W
        Runtime Dynamic = 0.299316 W

          Data Cache:
            Area = 6.84535 mm^2
            Peak Dynamic = 1.68245 W
            Subthreshold Leakage = 0.527675 W
            Subthreshold Leakage with power gating = 0.25085 W
            Gate Leakage = 0.0279261 W
            Runtime Dynamic = 0.213854 W

          LoadQ:
            Area = 0.0836782 mm^2
            Peak Dynamic = 0.0144076 W
            Subthreshold Leakage = 0.00941961 W
            Subthreshold Leakage with power gating = 0.00536918 W
            Gate Leakage = 0.00059896 W
            Runtime Dynamic = 0.0144077 W

          StoreQ:
            Area = 0.322079 mm^2
            Peak Dynamic = 0.0355267 W
            Subthreshold Leakage = 0.0345621 W
            Subthreshold Leakage with power gating = 0.0197004 W
            Gate Leakage = 0.00329971 W
            Runtime Dynamic = 0.0710538 W

      Memory Management Unit:
        Area = 0.434579 mm^2
        Peak Dynamic = 0.260124 W
        Subthreshold Leakage = 0.0769113 W
        Subthreshold Leakage with power gating = 0.0399462 W
        Gate Leakage = 0.00813591 W
        Runtime Dynamic = 0.0215294 W

          Itlb:
            Area = 0.301552 mm^2
            Peak Dynamic = 0.0798281 W
            Subthreshold Leakage = 0.0413758 W
            Subthreshold Leakage with power gating = 0.0235842 W
            Gate Leakage = 0.00393464 W
            Runtime Dynamic = 0.00892032 W

          Dtlb:
            Area = 0.0879726 mm^2
            Peak Dynamic = 0.0126085 W
            Subthreshold Leakage = 0.0155699 W
            Subthreshold Leakage with power gating = 0.00887485 W
            Gate Leakage = 0.00088729 W
            Runtime Dynamic = 0.0126086 W

      Execution Unit:
        Area = 8.2042 mm^2
        Peak Dynamic = 5.0059 W
        Subthreshold Leakage = 1.83518 W
        Subthreshold Leakage with power gating = 0.709678 W
        Gate Leakage = 0.122718 W
        Runtime Dynamic = 1.10888 W

          Register Files:
            Area = 0.570804 mm^2
            Peak Dynamic = 0.0205297 W
            Subthreshold Leakage = 0.0101387 W
            Subthreshold Leakage with power gating = 0.00423643 W
            Gate Leakage = 0.000622708 W
            Runtime Dynamic = 0.0238353 W

              Integer RF:
                Area = 0.362673 mm^2
                Peak Dynamic = 0.0205297 W
                Subthreshold Leakage = 0.00614175 W
                Subthreshold Leakage with power gating = 0.00246675 W
                Gate Leakage = 0.00038992 W
                Runtime Dynamic = 0.0209964 W

              Floating Point RF:
                Area = 0.208131 mm^2
                Peak Dynamic = 0 W
                Subthreshold Leakage = 0.00399698 W
                Subthreshold Leakage with power gating = 0.00176968 W
                Gate Leakage = 0.000232788 W
                Runtime Dynamic = 0.00283897 W

          Instruction Scheduler:
            Area = 2.17927 mm^2
            Peak Dynamic = 4.84781 W
            Subthreshold Leakage = 0.114878 W
            Subthreshold Leakage with power gating = 0.0641291 W
            Gate Leakage = 0.00730101 W
            Runtime Dynamic = 0.296517 W

              Instruction Window:
                Area = 1.00996 mm^2
                Peak Dynamic = 2.07911 W
                Subthreshold Leakage = 0.0800117 W
                Subthreshold Leakage with power gating = 0.0455351 W
                Gate Leakage = 0.00529112 W
                Runtime Dynamic = 0.135616 W

              FP Instruction Window:
                Area = 0.328073 mm^2
                Peak Dynamic = 1.20978 W
                Subthreshold Leakage = 0.017004 W
                Subthreshold Leakage with power gating = 0.00962066 W
                Gate Leakage = 0.00115349 W
                Runtime Dynamic = 0.0783162 W

              ROB:
                Area = 0.841232 mm^2
                Peak Dynamic = 1.55892 W
                Subthreshold Leakage = 0.0178624 W
                Subthreshold Leakage with power gating = 0.00897339 W
                Gate Leakage = 0.000856399 W
                Runtime Dynamic = 0.082585 W

          Integer ALUs (Count: 6 ):
            Area = 0.47087 mm^2
            Peak Dynamic = 0.0774122 W
            Subthreshold Leakage = 0.40222 W
            Subthreshold Leakage with power gating = 0.150833 W
            Gate Leakage = 0.0265291 W
            Runtime Dynamic = 0.161299 W

          Floating Point Units (FPUs) (Count: 2 ):
            Area = 4.6585 mm^2
            Peak Dynamic = 0 W
            Subthreshold Leakage = 0.994829 W
            Subthreshold Leakage with power gating = 0.373061 W
            Gate Leakage = 0.0656156 W
            Runtime Dynamic = 0.304033 W

          Complex ALUs (Mul/Div) (Count: 1 ):
            Area = 0.235435 mm^2
            Peak Dynamic = 0 W
            Subthreshold Leakage = 0.20111 W
            Subthreshold Leakage with power gating = 0.0754163 W
            Gate Leakage = 0.0132646 W
            Runtime Dynamic = 0.202689 W

          Results Broadcast Bus:
            Area Overhead = 0.0442632 mm^2
            Peak Dynamic = 0.0496082 W
            Subthreshold Leakage = 0.0920413 W
            Subthreshold Leakage with power gating = 0.0345155 W
            Gate Leakage = 0.00607074 W
            Runtime Dynamic = 0.120511 W

    L2
    Area = 4.53318 mm^2
    Peak Dynamic = 0 W
    Subthreshold Leakage = 0.834142 W
    Subthreshold Leakage with power gating = 0.401066 W
    Gate Leakage = 0.015464 W
    Runtime Dynamic = 2.88685e-06 W

*****************************************************************************************
Core:
      Area = 32.6082 mm^2
      Peak Dynamic = 15.1416 W
      Subthreshold Leakage = 6.21877 W
      Subthreshold Leakage with power gating = 2.58311 W
      Gate Leakage = 0.372997 W
      Runtime Dynamic = 1.62769 W

      Instruction Fetch Unit:
        Area = 5.86007 mm^2
        Peak Dynamic = 3.56427 W
        Subthreshold Leakage = 0.932587 W
        Subthreshold Leakage with power gating = 0.408542 W
        Gate Leakage = 0.0590479 W
        Runtime Dynamic = 0.154777 W

          Instruction Cache:
            Area = 3.14635 mm^2
            Peak Dynamic = 1.28255 W
            Subthreshold Leakage = 0.367022 W
            Subthreshold Leakage with power gating = 0.180386 W
            Gate Leakage = 0.029931 W
            Runtime Dynamic = 0.0542088 W

          Branch Target Buffer:
            Area = 0.64954 mm^2
            Peak Dynamic = 0.177867 W
            Subthreshold Leakage = 0.0811682 W
            Subthreshold Leakage with power gating = 0.0435357 W
            Gate Leakage = 0.00272758 W
            Runtime Dynamic = 0.00893586 W

          Branch Predictor:
            Area = 0.138516 mm^2
            Peak Dynamic = 0.0597838 W
            Subthreshold Leakage = 0.0199703 W
            Subthreshold Leakage with power gating = 0.0103282 W
            Gate Leakage = 0.000757657 W
            Runtime Dynamic = 0.00298553 W

              Global Predictor:
                Area = 0.0435221 mm^2
                Peak Dynamic = 0.0168831 W
                Subthreshold Leakage = 0.00759719 W
                Subthreshold Leakage with power gating = 0.0039236 W
                Gate Leakage = 0.000278362 W
                Runtime Dynamic = 0.0009347 W

              Local Predictor:
              L1_Local Predictor:
                Area = 0.0257064 mm^2
                Peak Dynamic = 0.0142575 W
                Subthreshold Leakage = 0.00384344 W
                Subthreshold Leakage with power gating = 0.00198631 W
                Gate Leakage = 0.000154548 W
                Runtime Dynamic = 0.000814849 W

              L2_Local Predictor:
                Area = 0.0151917 mm^2
                Peak Dynamic = 0.00527447 W
                Subthreshold Leakage = 0.00181347 W
                Subthreshold Leakage with power gating = 0.000957045 W
                Gate Leakage = 8.00196e-05 W
                Runtime Dynamic = 0.000315839 W

              Chooser:
                Area = 0.0435221 mm^2
                Peak Dynamic = 0.0168831 W
                Subthreshold Leakage = 0.00759719 W
                Subthreshold Leakage with power gating = 0.0039236 W
                Gate Leakage = 0.000278362 W
                Runtime Dynamic = 0.0009347 W

              RAS:
                Area = 0.0105732 mm^2
                Peak Dynamic = 0.0117602 W
                Subthreshold Leakage = 0.000932505 W
                Subthreshold Leakage with power gating = 0.000494733 W
                Gate Leakage = 4.63858e-05 W
                Runtime Dynamic = 0.000301285 W

          Instruction Buffer:
            Area = 0.0226323 mm^2
            Peak Dynamic = 0.606827 W
            Subthreshold Leakage = 0.00151885 W
            Subthreshold Leakage with power gating = 0.000701682 W
            Gate Leakage = 6.83558e-05 W
            Runtime Dynamic = 0.0201632 W

          Instruction Decoder:
            Area = 1.85799 mm^2
            Peak Dynamic = 1.37404 W
            Subthreshold Leakage = 0.442943 W
            Subthreshold Leakage with power gating = 0.166104 W
            Gate Leakage = 0.0222493 W
            Runtime Dynamic = 0.0684833 W

      Renaming Unit:
        Area = 0.369768 mm^2
        Peak Dynamic = 4.56169 W
        Subthreshold Leakage = 0.070483 W
        Subthreshold Leakage with power gating = 0.0362779 W
        Gate Leakage = 0.00863632 W
        Runtime Dynamic = 0.0443002 W

          Int Front End RAT:
            Area = 0.114751 mm^2
            Peak Dynamic = 0.86945 W
            Subthreshold Leakage = 0.00611897 W
            Subthreshold Leakage with power gating = 0.00348781 W
            Gate Leakage = 0.00038343 W
            Runtime Dynamic = 0.0402992 W

          FP Front End RAT:
            Area = 0.168486 mm^2
            Peak Dynamic = 3.33511 W
            Subthreshold Leakage = 0.0437281 W
            Subthreshold Leakage with power gating = 0.024925 W
            Gate Leakage = 0.00489731 W
            Runtime Dynamic = 0 W

          Free List:
            Area = 0.0414755 mm^2
            Peak Dynamic = 0.0401324 W
            Subthreshold Leakage = 0.000670426 W
            Subthreshold Leakage with power gating = 0.000377987 W
            Gate Leakage = 4.15911e-05 W
            Runtime Dynamic = 0.00400047 W

      Load Store Unit:
        Area = 8.80969 mm^2
        Peak Dynamic = 1.74989 W
        Subthreshold Leakage = 0.591622 W
        Subthreshold Leakage with power gating = 0.283406 W
        Gate Leakage = 0.0351387 W
        Runtime Dynamic = 0.298802 W

          Data Cache:
            Area = 6.84535 mm^2
            Peak Dynamic = 1.68169 W
            Subthreshold Leakage = 0.527675 W
            Subthreshold Leakage with power gating = 0.25085 W
            Gate Leakage = 0.0279261 W
            Runtime Dynamic = 0.213487 W

          LoadQ:
            Area = 0.0836782 mm^2
            Peak Dynamic = 0.014383 W
            Subthreshold Leakage = 0.00941961 W
            Subthreshold Leakage with power gating = 0.00536918 W
            Gate Leakage = 0.00059896 W
            Runtime Dynamic = 0.0143829 W

          StoreQ:
            Area = 0.322079 mm^2
            Peak Dynamic = 0.035466 W
            Subthreshold Leakage = 0.0345621 W
            Subthreshold Leakage with power gating = 0.0197004 W
            Gate Leakage = 0.00329971 W
            Runtime Dynamic = 0.0709316 W

      Memory Management Unit:
        Area = 0.434579 mm^2
        Peak Dynamic = 0.260003 W
        Subthreshold Leakage = 0.0769113 W
        Subthreshold Leakage with power gating = 0.0399462 W
        Gate Leakage = 0.00813591 W
        Runtime Dynamic = 0.02149 W

          Itlb:
            Area = 0.301552 mm^2
            Peak Dynamic = 0.0797445 W
            Subthreshold Leakage = 0.0413758 W
            Subthreshold Leakage with power gating = 0.0235842 W
            Gate Leakage = 0.00393464 W
            Runtime Dynamic = 0.00890266 W

          Dtlb:
            Area = 0.0879726 mm^2
            Peak Dynamic = 0.012587 W
            Subthreshold Leakage = 0.0155699 W
            Subthreshold Leakage with power gating = 0.00887485 W
            Gate Leakage = 0.00088729 W
            Runtime Dynamic = 0.0125869 W

      Execution Unit:
        Area = 8.2042 mm^2
        Peak Dynamic = 5.00574 W
        Subthreshold Leakage = 1.83518 W
        Subthreshold Leakage with power gating = 0.709678 W
        Gate Leakage = 0.122718 W
        Runtime Dynamic = 1.10831 W

          Register Files:
            Area = 0.570804 mm^2
            Peak Dynamic = 0.0205081 W
            Subthreshold Leakage = 0.0101387 W
            Subthreshold Leakage with power gating = 0.00423643 W
            Gate Leakage = 0.000622708 W
            Runtime Dynamic = 0.0238103 W

              Integer RF:
                Area = 0.362673 mm^2
                Peak Dynamic = 0.0205081 W
                Subthreshold Leakage = 0.00614175 W
                Subthreshold Leakage with power gating = 0.00246675 W
                Gate Leakage = 0.00038992 W
                Runtime Dynamic = 0.0209743 W

              Floating Point RF:
                Area = 0.208131 mm^2
                Peak Dynamic = 0 W
                Subthreshold Leakage = 0.00399698 W
                Subthreshold Leakage with power gating = 0.00176968 W
                Gate Leakage = 0.000232788 W
                Runtime Dynamic = 0.00283602 W

          Instruction Scheduler:
            Area = 2.17927 mm^2
            Peak Dynamic = 4.84781 W
            Subthreshold Leakage = 0.114878 W
            Subthreshold Leakage with power gating = 0.0641291 W
            Gate Leakage = 0.00730101 W
            Runtime Dynamic = 0.296192 W

              Instruction Window:
                Area = 1.00996 mm^2
                Peak Dynamic = 2.07911 W
                Subthreshold Leakage = 0.0800117 W
                Subthreshold Leakage with power gating = 0.0455351 W
                Gate Leakage = 0.00529112 W
                Runtime Dynamic = 0.135474 W

              FP Instruction Window:
                Area = 0.328073 mm^2
                Peak Dynamic = 1.20978 W
                Subthreshold Leakage = 0.017004 W
                Subthreshold Leakage with power gating = 0.00962066 W
                Gate Leakage = 0.00115349 W
                Runtime Dynamic = 0.0782343 W

              ROB:
                Area = 0.841232 mm^2
                Peak Dynamic = 1.55892 W
                Subthreshold Leakage = 0.0178624 W
                Subthreshold Leakage with power gating = 0.00897339 W
                Gate Leakage = 0.000856399 W
                Runtime Dynamic = 0.0824842 W

          Integer ALUs (Count: 6 ):
            Area = 0.47087 mm^2
            Peak Dynamic = 0.0773308 W
            Subthreshold Leakage = 0.40222 W
            Subthreshold Leakage with power gating = 0.150833 W
            Gate Leakage = 0.0265291 W
            Runtime Dynamic = 0.161226 W

          Floating Point Units (FPUs) (Count: 2 ):
            Area = 4.6585 mm^2
            Peak Dynamic = 0 W
            Subthreshold Leakage = 0.994829 W
            Subthreshold Leakage with power gating = 0.373061 W
            Gate Leakage = 0.0656156 W
            Runtime Dynamic = 0.304033 W

          Complex ALUs (Mul/Div) (Count: 1 ):
            Area = 0.235435 mm^2
            Peak Dynamic = 0 W
            Subthreshold Leakage = 0.20111 W
            Subthreshold Leakage with power gating = 0.0754163 W
            Gate Leakage = 0.0132646 W
            Runtime Dynamic = 0.202689 W

          Results Broadcast Bus:
            Area Overhead = 0.0442632 mm^2
            Peak Dynamic = 0.049556 W
            Subthreshold Leakage = 0.0920413 W
            Subthreshold Leakage with power gating = 0.0345155 W
            Gate Leakage = 0.00607074 W
            Runtime Dynamic = 0.120363 W

    L2
    Area = 4.53318 mm^2
    Peak Dynamic = 0 W
    Subthreshold Leakage = 0.834142 W
    Subthreshold Leakage with power gating = 0.401066 W
    Gate Leakage = 0.015464 W
    Runtime Dynamic = 2.88685e-06 W

*****************************************************************************************
Core:
      Area = 32.6082 mm^2
      Peak Dynamic = 15.1413 W
      Subthreshold Leakage = 6.21877 W
      Subthreshold Leakage with power gating = 2.58311 W
      Gate Leakage = 0.372997 W
      Runtime Dynamic = 1.62753 W

      Instruction Fetch Unit:
        Area = 5.86007 mm^2
        Peak Dynamic = 3.56408 W
        Subthreshold Leakage = 0.932587 W
        Subthreshold Leakage with power gating = 0.408542 W
        Gate Leakage = 0.0590479 W
        Runtime Dynamic = 0.154756 W

          Instruction Cache:
            Area = 3.14635 mm^2
            Peak Dynamic = 1.28237 W
            Subthreshold Leakage = 0.367022 W
            Subthreshold Leakage with power gating = 0.180386 W
            Gate Leakage = 0.029931 W
            Runtime Dynamic = 0.0542018 W

          Branch Target Buffer:
            Area = 0.64954 mm^2
            Peak Dynamic = 0.177867 W
            Subthreshold Leakage = 0.0811682 W
            Subthreshold Leakage with power gating = 0.0435357 W
            Gate Leakage = 0.00272758 W
            Runtime Dynamic = 0.00893457 W

          Branch Predictor:
            Area = 0.138516 mm^2
            Peak Dynamic = 0.0597838 W
            Subthreshold Leakage = 0.0199703 W
            Subthreshold Leakage with power gating = 0.0103282 W
            Gate Leakage = 0.000757657 W
            Runtime Dynamic = 0.00298506 W

              Global Predictor:
                Area = 0.0435221 mm^2
                Peak Dynamic = 0.0168831 W
                Subthreshold Leakage = 0.00759719 W
                Subthreshold Leakage with power gating = 0.0039236 W
                Gate Leakage = 0.000278362 W
                Runtime Dynamic = 0.000934552 W

              Local Predictor:
              L1_Local Predictor:
                Area = 0.0257064 mm^2
                Peak Dynamic = 0.0142575 W
                Subthreshold Leakage = 0.00384344 W
                Subthreshold Leakage with power gating = 0.00198631 W
                Gate Leakage = 0.000154548 W
                Runtime Dynamic = 0.000814716 W

              L2_Local Predictor:
                Area = 0.0151917 mm^2
                Peak Dynamic = 0.00527447 W
                Subthreshold Leakage = 0.00181347 W
                Subthreshold Leakage with power gating = 0.000957045 W
                Gate Leakage = 8.00196e-05 W
                Runtime Dynamic = 0.000315785 W

              Chooser:
                Area = 0.0435221 mm^2
                Peak Dynamic = 0.0168831 W
                Subthreshold Leakage = 0.00759719 W
                Subthreshold Leakage with power gating = 0.0039236 W
                Gate Leakage = 0.000278362 W
                Runtime Dynamic = 0.000934552 W

              RAS:
                Area = 0.0105732 mm^2
                Peak Dynamic = 0.0117602 W
                Subthreshold Leakage = 0.000932505 W
                Subthreshold Leakage with power gating = 0.000494733 W
                Gate Leakage = 4.63858e-05 W
                Runtime Dynamic = 0.000301242 W

          Instruction Buffer:
            Area = 0.0226323 mm^2
            Peak Dynamic = 0.606827 W
            Subthreshold Leakage = 0.00151885 W
            Subthreshold Leakage with power gating = 0.000701682 W
            Gate Leakage = 6.83558e-05 W
            Runtime Dynamic = 0.0201604 W

          Instruction Decoder:
            Area = 1.85799 mm^2
            Peak Dynamic = 1.37404 W
            Subthreshold Leakage = 0.442943 W
            Subthreshold Leakage with power gating = 0.166104 W
            Gate Leakage = 0.0222493 W
            Runtime Dynamic = 0.0684739 W

      Renaming Unit:
        Area = 0.369768 mm^2
        Peak Dynamic = 4.56169 W
        Subthreshold Leakage = 0.070483 W
        Subthreshold Leakage with power gating = 0.0362779 W
        Gate Leakage = 0.00863632 W
        Runtime Dynamic = 0.0442941 W

          Int Front End RAT:
            Area = 0.114751 mm^2
            Peak Dynamic = 0.86945 W
            Subthreshold Leakage = 0.00611897 W
            Subthreshold Leakage with power gating = 0.00348781 W
            Gate Leakage = 0.00038343 W
            Runtime Dynamic = 0.0402937 W

          FP Front End RAT:
            Area = 0.168486 mm^2
            Peak Dynamic = 3.33511 W
            Subthreshold Leakage = 0.0437281 W
            Subthreshold Leakage with power gating = 0.024925 W
            Gate Leakage = 0.00489731 W
            Runtime Dynamic = 0 W

          Free List:
            Area = 0.0414755 mm^2
            Peak Dynamic = 0.0401324 W
            Subthreshold Leakage = 0.000670426 W
            Subthreshold Leakage with power gating = 0.000377987 W
            Gate Leakage = 4.15911e-05 W
            Runtime Dynamic = 0.00399992 W

      Load Store Unit:
        Area = 8.80969 mm^2
        Peak Dynamic = 1.7498 W
        Subthreshold Leakage = 0.591622 W
        Subthreshold Leakage with power gating = 0.283406 W
        Gate Leakage = 0.0351387 W
        Runtime Dynamic = 0.298749 W

          Data Cache:
            Area = 6.84535 mm^2
            Peak Dynamic = 1.68162 W
            Subthreshold Leakage = 0.527675 W
            Subthreshold Leakage with power gating = 0.25085 W
            Gate Leakage = 0.0279261 W
            Runtime Dynamic = 0.213449 W

          LoadQ:
            Area = 0.0836782 mm^2
            Peak Dynamic = 0.0143805 W
            Subthreshold Leakage = 0.00941961 W
            Subthreshold Leakage with power gating = 0.00536918 W
            Gate Leakage = 0.00059896 W
            Runtime Dynamic = 0.0143804 W

          StoreQ:
            Area = 0.322079 mm^2
            Peak Dynamic = 0.0354599 W
            Subthreshold Leakage = 0.0345621 W
            Subthreshold Leakage with power gating = 0.0197004 W
            Gate Leakage = 0.00329971 W
            Runtime Dynamic = 0.0709192 W

      Memory Management Unit:
        Area = 0.434579 mm^2
        Peak Dynamic = 0.259988 W
        Subthreshold Leakage = 0.0769113 W
        Subthreshold Leakage with power gating = 0.0399462 W
        Gate Leakage = 0.00813591 W
        Runtime Dynamic = 0.0214867 W

          Itlb:
            Area = 0.301552 mm^2
            Peak Dynamic = 0.0797333 W
            Subthreshold Leakage = 0.0413758 W
            Subthreshold Leakage with power gating = 0.0235842 W
            Gate Leakage = 0.00393464 W
            Runtime Dynamic = 0.0089015 W

          Dtlb:
            Area = 0.0879726 mm^2
            Peak Dynamic = 0.0125848 W
            Subthreshold Leakage = 0.0155699 W
            Subthreshold Leakage with power gating = 0.00887485 W
            Gate Leakage = 0.00088729 W
            Runtime Dynamic = 0.0125847 W

      Execution Unit:
        Area = 8.2042 mm^2
        Peak Dynamic = 5.00572 W
        Subthreshold Leakage = 1.83518 W
        Subthreshold Leakage with power gating = 0.709678 W
        Gate Leakage = 0.122718 W
        Runtime Dynamic = 1.10824 W

          Register Files:
            Area = 0.570804 mm^2
            Peak Dynamic = 0.0205056 W
            Subthreshold Leakage = 0.0101387 W
            Subthreshold Leakage with power gating = 0.00423643 W
            Gate Leakage = 0.000622708 W
            Runtime Dynamic = 0.023807 W

              Integer RF:
                Area = 0.362673 mm^2
                Peak Dynamic = 0.0205056 W
                Subthreshold Leakage = 0.00614175 W
                Subthreshold Leakage with power gating = 0.00246675 W
                Gate Leakage = 0.00038992 W
                Runtime Dynamic = 0.0209714 W

              Floating Point RF:
                Area = 0.208131 mm^2
                Peak Dynamic = 0 W
                Subthreshold Leakage = 0.00399698 W
                Subthreshold Leakage with power gating = 0.00176968 W
                Gate Leakage = 0.000232788 W
                Runtime Dynamic = 0.00283557 W

          Instruction Scheduler:
            Area = 2.17927 mm^2
            Peak Dynamic = 4.84781 W
            Subthreshold Leakage = 0.114878 W
            Subthreshold Leakage with power gating = 0.0641291 W
            Gate Leakage = 0.00730101 W
            Runtime Dynamic = 0.296151 W

              Instruction Window:
                Area = 1.00996 mm^2
                Peak Dynamic = 2.07911 W
                Subthreshold Leakage = 0.0800117 W
                Subthreshold Leakage with power gating = 0.0455351 W
                Gate Leakage = 0.00529112 W
                Runtime Dynamic = 0.135455 W

              FP Instruction Window:
                Area = 0.328073 mm^2
                Peak Dynamic = 1.20978 W
                Subthreshold Leakage = 0.017004 W
                Subthreshold Leakage with power gating = 0.00962066 W
                Gate Leakage = 0.00115349 W
                Runtime Dynamic = 0.0782233 W

              ROB:
                Area = 0.841232 mm^2
                Peak Dynamic = 1.55892 W
                Subthreshold Leakage = 0.0178624 W
                Subthreshold Leakage with power gating = 0.00897339 W
                Gate Leakage = 0.000856399 W
                Runtime Dynamic = 0.0824729 W

          Integer ALUs (Count: 6 ):
            Area = 0.47087 mm^2
            Peak Dynamic = 0.0773215 W
            Subthreshold Leakage = 0.40222 W
            Subthreshold Leakage with power gating = 0.150833 W
            Gate Leakage = 0.0265291 W
            Runtime Dynamic = 0.161218 W

          Floating Point Units (FPUs) (Count: 2 ):
            Area = 4.6585 mm^2
            Peak Dynamic = 0 W
            Subthreshold Leakage = 0.994829 W
            Subthreshold Leakage with power gating = 0.373061 W
            Gate Leakage = 0.0656156 W
            Runtime Dynamic = 0.304033 W

          Complex ALUs (Mul/Div) (Count: 1 ):
            Area = 0.235435 mm^2
            Peak Dynamic = 0 W
            Subthreshold Leakage = 0.20111 W
            Subthreshold Leakage with power gating = 0.0754163 W
            Gate Leakage = 0.0132646 W
            Runtime Dynamic = 0.202689 W

          Results Broadcast Bus:
            Area Overhead = 0.0442632 mm^2
            Peak Dynamic = 0.04955 W
            Subthreshold Leakage = 0.0920413 W
            Subthreshold Leakage with power gating = 0.0345155 W
            Gate Leakage = 0.00607074 W
            Runtime Dynamic = 0.120347 W

    L2
    Area = 4.53318 mm^2
    Peak Dynamic = 0 W
    Subthreshold Leakage = 0.834142 W
    Subthreshold Leakage with power gating = 0.401066 W
    Gate Leakage = 0.015464 W
    Runtime Dynamic = 2.88685e-06 W

*****************************************************************************************
Core:
      Area = 32.6082 mm^2
      Peak Dynamic = 15.138 W
      Subthreshold Leakage = 6.21877 W
      Subthreshold Leakage with power gating = 2.58311 W
      Gate Leakage = 0.372997 W
      Runtime Dynamic = 1.62585 W

      Instruction Fetch Unit:
        Area = 5.86007 mm^2
        Peak Dynamic = 3.56221 W
        Subthreshold Leakage = 0.932587 W
        Subthreshold Leakage with power gating = 0.408542 W
        Gate Leakage = 0.0590479 W
        Runtime Dynamic = 0.154487 W

          Instruction Cache:
            Area = 3.14635 mm^2
            Peak Dynamic = 1.28059 W
            Subthreshold Leakage = 0.367022 W
            Subthreshold Leakage with power gating = 0.180386 W
            Gate Leakage = 0.029931 W
            Runtime Dynamic = 0.0540713 W

          Branch Target Buffer:
            Area = 0.64954 mm^2
            Peak Dynamic = 0.177867 W
            Subthreshold Leakage = 0.0811682 W
            Subthreshold Leakage with power gating = 0.0435357 W
            Gate Leakage = 0.00272758 W
            Runtime Dynamic = 0.00892352 W

          Branch Predictor:
            Area = 0.138516 mm^2
            Peak Dynamic = 0.0597838 W
            Subthreshold Leakage = 0.0199703 W
            Subthreshold Leakage with power gating = 0.0103282 W
            Gate Leakage = 0.000757657 W
            Runtime Dynamic = 0.00298102 W

              Global Predictor:
                Area = 0.0435221 mm^2
                Peak Dynamic = 0.0168831 W
                Subthreshold Leakage = 0.00759719 W
                Subthreshold Leakage with power gating = 0.0039236 W
                Gate Leakage = 0.000278362 W
                Runtime Dynamic = 0.000933306 W

              Local Predictor:
              L1_Local Predictor:
                Area = 0.0257064 mm^2
                Peak Dynamic = 0.0142575 W
                Subthreshold Leakage = 0.00384344 W
                Subthreshold Leakage with power gating = 0.00198631 W
                Gate Leakage = 0.000154548 W
                Runtime Dynamic = 0.000813606 W

              L2_Local Predictor:
                Area = 0.0151917 mm^2
                Peak Dynamic = 0.00527447 W
                Subthreshold Leakage = 0.00181347 W
                Subthreshold Leakage with power gating = 0.000957045 W
                Gate Leakage = 8.00196e-05 W
                Runtime Dynamic = 0.000315342 W

              Chooser:
                Area = 0.0435221 mm^2
                Peak Dynamic = 0.0168831 W
                Subthreshold Leakage = 0.00759719 W
                Subthreshold Leakage with power gating = 0.0039236 W
                Gate Leakage = 0.000278362 W
                Runtime Dynamic = 0.000933306 W

              RAS:
                Area = 0.0105732 mm^2
                Peak Dynamic = 0.0117602 W
                Subthreshold Leakage = 0.000932505 W
                Subthreshold Leakage with power gating = 0.000494733 W
                Gate Leakage = 4.63858e-05 W
                Runtime Dynamic = 0.000300805 W

          Instruction Buffer:
            Area = 0.0226323 mm^2
            Peak Dynamic = 0.606827 W
            Subthreshold Leakage = 0.00151885 W
            Subthreshold Leakage with power gating = 0.000701682 W
            Gate Leakage = 6.83558e-05 W
            Runtime Dynamic = 0.0201324 W

          Instruction Decoder:
            Area = 1.85799 mm^2
            Peak Dynamic = 1.37404 W
            Subthreshold Leakage = 0.442943 W
            Subthreshold Leakage with power gating = 0.166104 W
            Gate Leakage = 0.0222493 W
            Runtime Dynamic = 0.0683786 W

      Renaming Unit:
[...]
            Subthreshold Leakage with power gating = 0.000701682 W
            Gate Leakage = 6.83558e-05 W
            Runtime Dynamic = 0.0200543 W

          Instruction Decoder:
            Area = 1.85799 mm^2
            Peak Dynamic = 1.37404 W
            Subthreshold Leakage = 0.442943 W
            Subthreshold Leakage with power gating = 0.166104 W
            Gate Leakage = 0.0222493 W
            Runtime Dynamic = 0.0681136 W

      Renaming Unit:
        Area = 0.369768 mm^2
        Peak Dynamic = 4.56169 W
        Subthreshold Leakage = 0.070483 W
        Subthreshold Leakage with power gating = 0.0362779 W
        Gate Leakage = 0.00863632 W
        Runtime Dynamic = 0.0440635 W

          Int Front End RAT:
            Area = 0.114751 mm^2
            Peak Dynamic = 0.86945 W
            Subthreshold Leakage = 0.00611897 W
            Subthreshold Leakage with power gating = 0.00348781 W
            Gate Leakage = 0.00038343 W
            Runtime Dynamic = 0.0400842 W

          FP Front End RAT:
            Area = 0.168486 mm^2
            Peak Dynamic = 3.33511 W
            Subthreshold Leakage = 0.0437281 W
            Subthreshold Leakage with power gating = 0.024925 W
            Gate Leakage = 0.00489731 W
            Runtime Dynamic = 0 W

          Free List:
            Area = 0.0414755 mm^2
            Peak Dynamic = 0.0401324 W
            Subthreshold Leakage = 0.000670426 W
            Subthreshold Leakage with power gating = 0.000377987 W
            Gate Leakage = 4.15911e-05 W
            Runtime Dynamic = 0.00397887 W

      Load Store Unit:
        Area = 8.80969 mm^2
        Peak Dynamic = 1.74716 W
        Subthreshold Leakage = 0.591622 W
        Subthreshold Leakage with power gating = 0.283406 W
        Gate Leakage = 0.0351387 W
        Runtime Dynamic = 0.297213 W

          Data Cache:
            Area = 6.84535 mm^2
            Peak Dynamic = 1.67933 W
            Subthreshold Leakage = 0.527675 W
            Subthreshold Leakage with power gating = 0.25085 W
            Gate Leakage = 0.0279261 W
            Runtime Dynamic = 0.212352 W

          LoadQ:
            Area = 0.0836782 mm^2
            Peak Dynamic = 0.0143064 W
            Subthreshold Leakage = 0.00941961 W
            Subthreshold Leakage with power gating = 0.00536918 W
            Gate Leakage = 0.00059896 W
            Runtime Dynamic = 0.0143064 W

          StoreQ:
            Area = 0.322079 mm^2
            Peak Dynamic = 0.0352773 W
            Subthreshold Leakage = 0.0345621 W
            Subthreshold Leakage with power gating = 0.0197004 W
            Gate Leakage = 0.00329971 W
            Runtime Dynamic = 0.0705545 W

      Memory Management Unit:
        Area = 0.434579 mm^2
        Peak Dynamic = 0.259457 W
        Subthreshold Leakage = 0.0769113 W
        Subthreshold Leakage with power gating = 0.0399462 W
        Gate Leakage = 0.00813591 W
        Runtime Dynamic = 0.0213702 W

          Itlb:
            Area = 0.301552 mm^2
            Peak Dynamic = 0.0793137 W
            Subthreshold Leakage = 0.0413758 W
            Subthreshold Leakage with power gating = 0.0235842 W
            Gate Leakage = 0.00393464 W
            Runtime Dynamic = 0.00884974 W

          Dtlb:
            Area = 0.0879726 mm^2
            Peak Dynamic = 0.01252 W
            Subthreshold Leakage = 0.0155699 W
            Subthreshold Leakage with power gating = 0.00887485 W
            Gate Leakage = 0.00088729 W
            Runtime Dynamic = 0.01252 W

      Execution Unit:
        Area = 8.2042 mm^2
        Peak Dynamic = 5.00489 W
        Subthreshold Leakage = 1.83518 W
        Subthreshold Leakage with power gating = 0.709678 W
        Gate Leakage = 0.122718 W
        Runtime Dynamic = 1.10565 W

          Register Files:
            Area = 0.570804 mm^2
            Peak Dynamic = 0.0203976 W
            Subthreshold Leakage = 0.0101387 W
            Subthreshold Leakage with power gating = 0.00423643 W
            Gate Leakage = 0.000622708 W
            Runtime Dynamic = 0.0236818 W

              Integer RF:
                Area = 0.362673 mm^2
                Peak Dynamic = 0.0203976 W
                Subthreshold Leakage = 0.00614175 W
                Subthreshold Leakage with power gating = 0.00246675 W
                Gate Leakage = 0.00038992 W
                Runtime Dynamic = 0.020861 W

              Floating Point RF:
                Area = 0.208131 mm^2
                Peak Dynamic = 0 W
                Subthreshold Leakage = 0.00399698 W
                Subthreshold Leakage with power gating = 0.00176968 W
                Gate Leakage = 0.000232788 W
                Runtime Dynamic = 0.00282072 W

          Instruction Scheduler:
            Area = 2.17927 mm^2
            Peak Dynamic = 4.84781 W
            Subthreshold Leakage = 0.114878 W
            Subthreshold Leakage with power gating = 0.0641291 W
            Gate Leakage = 0.00730101 W
            Runtime Dynamic = 0.294591 W

              Instruction Window:
                Area = 1.00996 mm^2
                Peak Dynamic = 2.07911 W
                Subthreshold Leakage = 0.0800117 W
                Subthreshold Leakage with power gating = 0.0455351 W
                Gate Leakage = 0.00529112 W
                Runtime Dynamic = 0.134742 W

              FP Instruction Window:
                Area = 0.328073 mm^2
                Peak Dynamic = 1.20978 W
                Subthreshold Leakage = 0.017004 W
                Subthreshold Leakage with power gating = 0.00962066 W
                Gate Leakage = 0.00115349 W
                Runtime Dynamic = 0.0778116 W

              ROB:
                Area = 0.841232 mm^2
                Peak Dynamic = 1.55892 W
                Subthreshold Leakage = 0.0178624 W
                Subthreshold Leakage with power gating = 0.00897339 W
                Gate Leakage = 0.000856399 W
                Runtime Dynamic = 0.0820371 W

          Integer ALUs (Count: 6 ):
            Area = 0.47087 mm^2
            Peak Dynamic = 0.0769142 W
            Subthreshold Leakage = 0.40222 W
            Subthreshold Leakage with power gating = 0.150833 W
            Gate Leakage = 0.0265291 W
            Runtime Dynamic = 0.160917 W

          Floating Point Units (FPUs) (Count: 2 ):
            Area = 4.6585 mm^2
            Peak Dynamic = 0 W
            Subthreshold Leakage = 0.994829 W
            Subthreshold Leakage with power gating = 0.373061 W
            Gate Leakage = 0.0656156 W
            Runtime Dynamic = 0.304033 W

          Complex ALUs (Mul/Div) (Count: 1 ):
            Area = 0.235435 mm^2
            Peak Dynamic = 0 W
            Subthreshold Leakage = 0.20111 W
            Subthreshold Leakage with power gating = 0.0754163 W
            Gate Leakage = 0.0132646 W
            Runtime Dynamic = 0.202689 W

          Results Broadcast Bus:
            Area Overhead = 0.0442632 mm^2
            Peak Dynamic = 0.049289 W
            Subthreshold Leakage = 0.0920413 W
            Subthreshold Leakage with power gating = 0.0345155 W
            Gate Leakage = 0.00607074 W
            Runtime Dynamic = 0.119742 W

    L2
    Area = 4.53318 mm^2
    Peak Dynamic = 0 W
    Subthreshold Leakage = 0.834142 W
    Subthreshold Leakage with power gating = 0.401066 W
    Gate Leakage = 0.015464 W
    Runtime Dynamic = 2.88685e-06 W

*****************************************************************************************
Core:
      Area = 32.6082 mm^2
      Peak Dynamic = 15.1293 W
      Subthreshold Leakage = 6.21877 W
      Subthreshold Leakage with power gating = 2.58311 W
      Gate Leakage = 0.372997 W
      Runtime Dynamic = 1.62188 W

      Instruction Fetch Unit:
        Area = 5.86007 mm^2
        Peak Dynamic = 3.55625 W
        Subthreshold Leakage = 0.932587 W
        Subthreshold Leakage with power gating = 0.408542 W
        Gate Leakage = 0.0590479 W
        Runtime Dynamic = 0.153833 W

          Instruction Cache:
            Area = 3.14635 mm^2
            Peak Dynamic = 1.27491 W
            Subthreshold Leakage = 0.367022 W
            Subthreshold Leakage with power gating = 0.180386 W
            Gate Leakage = 0.029931 W
            Runtime Dynamic = 0.053881 W

          Branch Target Buffer:
            Area = 0.64954 mm^2
            Peak Dynamic = 0.177867 W
            Subthreshold Leakage = 0.0811682 W
            Subthreshold Leakage with power gating = 0.0435357 W
            Gate Leakage = 0.00272758 W
            Runtime Dynamic = 0.00887058 W

          Branch Predictor:
            Area = 0.138516 mm^2
            Peak Dynamic = 0.0597838 W
            Subthreshold Leakage = 0.0199703 W
            Subthreshold Leakage with power gating = 0.0103282 W
            Gate Leakage = 0.000757657 W
            Runtime Dynamic = 0.00296286 W

              Global Predictor:
                Area = 0.0435221 mm^2
                Peak Dynamic = 0.0168831 W
                Subthreshold Leakage = 0.00759719 W
                Subthreshold Leakage with power gating = 0.0039236 W
                Gate Leakage = 0.000278362 W
                Runtime Dynamic = 0.000927467 W

              Local Predictor:
              L1_Local Predictor:
                Area = 0.0257064 mm^2
                Peak Dynamic = 0.0142575 W
                Subthreshold Leakage = 0.00384344 W
                Subthreshold Leakage with power gating = 0.00198631 W
                Gate Leakage = 0.000154548 W
                Runtime Dynamic = 0.000808435 W

              L2_Local Predictor:
                Area = 0.0151917 mm^2
                Peak Dynamic = 0.00527447 W
                Subthreshold Leakage = 0.00181347 W
                Subthreshold Leakage with power gating = 0.000957045 W
                Gate Leakage = 8.00196e-05 W
                Runtime Dynamic = 0.000313293 W

              Chooser:
                Area = 0.0435221 mm^2
                Peak Dynamic = 0.0168831 W
                Subthreshold Leakage = 0.00759719 W
                Subthreshold Leakage with power gating = 0.0039236 W
                Gate Leakage = 0.000278362 W
                Runtime Dynamic = 0.000927467 W

              RAS:
                Area = 0.0105732 mm^2
                Peak Dynamic = 0.0117602 W
                Subthreshold Leakage = 0.000932505 W
                Subthreshold Leakage with power gating = 0.000494733 W
                Gate Leakage = 4.63858e-05 W
                Runtime Dynamic = 0.000299495 W

          Instruction Buffer:
            Area = 0.0226323 mm^2
            Peak Dynamic = 0.606827 W
            Subthreshold Leakage = 0.00151885 W
            Subthreshold Leakage with power gating = 0.000701682 W
            Gate Leakage = 6.83558e-05 W
            Runtime Dynamic = 0.0200431 W

          Instruction Decoder:
            Area = 1.85799 mm^2
            Peak Dynamic = 1.37404 W
            Subthreshold Leakage = 0.442943 W
            Subthreshold Leakage with power gating = 0.166104 W
            Gate Leakage = 0.0222493 W
            Runtime Dynamic = 0.0680753 W

      Renaming Unit:
        Area = 0.369768 mm^2
        Peak Dynamic = 4.56169 W
        Subthreshold Leakage = 0.070483 W
        Subthreshold Leakage with power gating = 0.0362779 W
        Gate Leakage = 0.00863632 W
        Runtime Dynamic = 0.0440404 W

          Int Front End RAT:
            Area = 0.114751 mm^2
            Peak Dynamic = 0.86945 W
            Subthreshold Leakage = 0.00611897 W
            Subthreshold Leakage with power gating = 0.00348781 W
            Gate Leakage = 0.00038343 W
            Runtime Dynamic = 0.0400633 W

          FP Front End RAT:
            Area = 0.168486 mm^2
            Peak Dynamic = 3.33511 W
            Subthreshold Leakage = 0.0437281 W
            Subthreshold Leakage with power gating = 0.024925 W
            Gate Leakage = 0.00489731 W
            Runtime Dynamic = 0 W

          Free List:
            Area = 0.0414755 mm^2
            Peak Dynamic = 0.0401324 W
            Subthreshold Leakage = 0.000670426 W
            Subthreshold Leakage with power gating = 0.000377987 W
            Gate Leakage = 4.15911e-05 W
            Runtime Dynamic = 0.00397664 W

      Load Store Unit:
        Area = 8.80969 mm^2
        Peak Dynamic = 1.74716 W
        Subthreshold Leakage = 0.591622 W
        Subthreshold Leakage with power gating = 0.283406 W
        Gate Leakage = 0.0351387 W
        Runtime Dynamic = 0.297213 W

          Data Cache:
            Area = 6.84535 mm^2
            Peak Dynamic = 1.67933 W
            Subthreshold Leakage = 0.527675 W
            Subthreshold Leakage with power gating = 0.25085 W
            Gate Leakage = 0.0279261 W
            Runtime Dynamic = 0.212352 W

          LoadQ:
            Area = 0.0836782 mm^2
            Peak Dynamic = 0.0143064 W
            Subthreshold Leakage = 0.00941961 W
            Subthreshold Leakage with power gating = 0.00536918 W
            Gate Leakage = 0.00059896 W
            Runtime Dynamic = 0.0143064 W

          StoreQ:
            Area = 0.322079 mm^2
            Peak Dynamic = 0.0352773 W
            Subthreshold Leakage = 0.0345621 W
            Subthreshold Leakage with power gating = 0.0197004 W
            Gate Leakage = 0.00329971 W
            Runtime Dynamic = 0.0705545 W

      Memory Management Unit:
        Area = 0.434579 mm^2
        Peak Dynamic = 0.259412 W
        Subthreshold Leakage = 0.0769113 W
        Subthreshold Leakage with power gating = 0.0399462 W
        Gate Leakage = 0.00813591 W
        Runtime Dynamic = 0.021369 W

          Itlb:
            Area = 0.301552 mm^2
            Peak Dynamic = 0.0792693 W
            Subthreshold Leakage = 0.0413758 W
            Subthreshold Leakage with power gating = 0.0235842 W
            Gate Leakage = 0.00393464 W
            Runtime Dynamic = 0.00884859 W

          Dtlb:
            Area = 0.0879726 mm^2
            Peak Dynamic = 0.01252 W
            Subthreshold Leakage = 0.0155699 W
            Subthreshold Leakage with power gating = 0.00887485 W
            Gate Leakage = 0.00088729 W
            Runtime Dynamic = 0.01252 W

      Execution Unit:
        Area = 8.2042 mm^2
        Peak Dynamic = 5.00479 W
        Subthreshold Leakage = 1.83518 W
        Subthreshold Leakage with power gating = 0.709678 W
        Gate Leakage = 0.122718 W
        Runtime Dynamic = 1.10542 W

          Register Files:
            Area = 0.570804 mm^2
            Peak Dynamic = 0.0203859 W
            Subthreshold Leakage = 0.0101387 W
            Subthreshold Leakage with power gating = 0.00423643 W
            Gate Leakage = 0.000622708 W
            Runtime Dynamic = 0.0236686 W

              Integer RF:
                Area = 0.362673 mm^2
                Peak Dynamic = 0.0203859 W
                Subthreshold Leakage = 0.00614175 W
                Subthreshold Leakage with power gating = 0.00246675 W
                Gate Leakage = 0.00038992 W
                Runtime Dynamic = 0.0208494 W

              Floating Point RF:
                Area = 0.208131 mm^2
                Peak Dynamic = 0 W
                Subthreshold Leakage = 0.00399698 W
                Subthreshold Leakage with power gating = 0.00176968 W
                Gate Leakage = 0.000232788 W
                Runtime Dynamic = 0.00281913 W

          Instruction Scheduler:
            Area = 2.17927 mm^2
            Peak Dynamic = 4.84781 W
            Subthreshold Leakage = 0.114878 W
            Subthreshold Leakage with power gating = 0.0641291 W
            Gate Leakage = 0.00730101 W
            Runtime Dynamic = 0.29443 W

              Instruction Window:
                Area = 1.00996 mm^2
                Peak Dynamic = 2.07911 W
                Subthreshold Leakage = 0.0800117 W
                Subthreshold Leakage with power gating = 0.0455351 W
                Gate Leakage = 0.00529112 W
                Runtime Dynamic = 0.134667 W

              FP Instruction Window:
                Area = 0.328073 mm^2
                Peak Dynamic = 1.20978 W
                Subthreshold Leakage = 0.017004 W
                Subthreshold Leakage with power gating = 0.00962066 W
                Gate Leakage = 0.00115349 W
                Runtime Dynamic = 0.0777683 W

              ROB:
                Area = 0.841232 mm^2
                Peak Dynamic = 1.55892 W
                Subthreshold Leakage = 0.0178624 W
                Subthreshold Leakage with power gating = 0.00897339 W
                Gate Leakage = 0.000856399 W
                Runtime Dynamic = 0.0819948 W

          Integer ALUs (Count: 6 ):
            Area = 0.47087 mm^2
            Peak Dynamic = 0.07687 W
            Subthreshold Leakage = 0.40222 W
            Subthreshold Leakage with power gating = 0.150833 W
            Gate Leakage = 0.0265291 W
            Runtime Dynamic = 0.160896 W

          Floating Point Units (FPUs) (Count: 2 ):
            Area = 4.6585 mm^2
            Peak Dynamic = 0 W
            Subthreshold Leakage = 0.994829 W
            Subthreshold Leakage with power gating = 0.373061 W
            Gate Leakage = 0.0656156 W
            Runtime Dynamic = 0.304033 W

          Complex ALUs (Mul/Div) (Count: 1 ):
            Area = 0.235435 mm^2
            Peak Dynamic = 0 W
            Subthreshold Leakage = 0.20111 W
            Subthreshold Leakage with power gating = 0.0754163 W
            Gate Leakage = 0.0132646 W
            Runtime Dynamic = 0.202689 W

          Results Broadcast Bus:
            Area Overhead = 0.0442632 mm^2
            Peak Dynamic = 0.0492607 W
            Subthreshold Leakage = 0.0920413 W
            Subthreshold Leakage with power gating = 0.0345155 W
            Gate Leakage = 0.00607074 W
            Runtime Dynamic = 0.119701 W

    L2
    Area = 4.53318 mm^2
    Peak Dynamic = 0 W
    Subthreshold Leakage = 0.834142 W
    Subthreshold Leakage with power gating = 0.401066 W
    Gate Leakage = 0.015464 W
    Runtime Dynamic = 2.88685e-06 W

*****************************************************************************************
      L3
      Area = 61.9075 mm^2
      Peak Dynamic = 0 W
      Subthreshold Leakage = 6.80085 W
      Subthreshold Leakage with power gating = 3.32364 W
      Gate Leakage = 0.0484137 W
      Runtime Dynamic = 2.89571e-06 W

*****************************************************************************************
      L3
      Area = 61.9075 mm^2
      Peak Dynamic = 0 W
      Subthreshold Leakage = 6.80085 W
      Subthreshold Leakage with power gating = 3.32364 W
      Gate Leakage = 0.0484137 W
      Runtime Dynamic = 2.89571e-06 W

*****************************************************************************************
      L3
      Area = 61.9075 mm^2
      Peak Dynamic = 0 W
      Subthreshold Leakage = 6.80085 W
      Subthreshold Leakage with power gating = 3.32364 W
      Gate Leakage = 0.0484137 W
      Runtime Dynamic = 2.89571e-06 W

*****************************************************************************************
      L3
      Area = 61.9075 mm^2
      Peak Dynamic = 0 W
      Subthreshold Leakage = 6.80085 W
      Subthreshold Leakage with power gating = 3.32364 W
      Gate Leakage = 0.0484137 W
      Runtime Dynamic = 2.89571e-06 W

*****************************************************************************************
BUSES
      Area = 5.23823 mm^2
      Peak Dynamic = 0 W
      Subthreshold Leakage = 0.14654 W
      Subthreshold Leakage with power gating = 0.0549525 W
      Gate Leakage = 0.0140527 W
      Runtime Dynamic = 0 W

      Bus: 
        Area = 5.23823 mm^2
        Peak Dynamic = 0 W
        Subthreshold Leakage = 0.14654 W
        Subthreshold Leakage with power gating = 0.0549525 W
        Gate Leakage = 0.0140527 W
        Runtime Dynamic = 0 W

*****************************************************************************************
