McPAT (version 1.0 of Aug, 2013) is computing the target processor...
 

McPAT (version 1.0 of Aug, 2013) results  (current print level is 5)
*****************************************************************************************
  Technology 45 nm
  Using Long Channel Devices When Appropriate
  Interconnect metal projection= aggressive interconnect technology projection
  Core clock Rate(MHz) 2660

*****************************************************************************************
Processor: 
  Area = 637.714 mm^2
  Peak Power = 182.62 W
  Total Leakage = 80.0942 W
  Peak Dynamic = 102.526 W
  Subthreshold Leakage = 75.6875 W
  Subthreshold Leakage with power gating = 34.2992 W
  Gate Leakage = 4.40662 W
  Runtime Dynamic = 11.4026 W

  Total Cores: 15 cores 
  Device Type= ITRS high performance device type
    Area = 385.333 mm^2
    Peak Dynamic = 102.526 W
    Subthreshold Leakage = 48.3512 W
    Subthreshold Leakage with power gating = 20.4629 W
    Gate Leakage = 4.20022 W
    Runtime Dynamic = 11.4026 W

  Total L3s: 
  Device Type= ITRS high performance device type
    Area = 247.63 mm^2
    Peak Dynamic = 0 W
    Subthreshold Leakage = 27.2034 W
    Subthreshold Leakage with power gating = 13.2946 W
    Gate Leakage = 0.193655 W
    Runtime Dynamic = 1.50092e-05 W

  Total NoCs (Network/Bus): 
  Device Type= ITRS high performance device type
    Area = 4.75126 mm^2
    Peak Dynamic = 0 W
    Subthreshold Leakage = 0.132917 W
    Subthreshold Leakage with power gating = 0.0498438 W
    Gate Leakage = 0.0127463 W
    Runtime Dynamic = 0 W

*****************************************************************************************
Core:
      Area = 25.6888 mm^2
      Peak Dynamic = 6.82901 W
      Subthreshold Leakage = 3.22341 W
      Subthreshold Leakage with power gating = 1.36419 W
      Gate Leakage = 0.280015 W
      Runtime Dynamic = 0.758322 W

      Instruction Fetch Unit:
        Area = 5.98523 mm^2
        Peak Dynamic = 3.94675 W
        Subthreshold Leakage = 0.703301 W
        Subthreshold Leakage with power gating = 0.305608 W
        Gate Leakage = 0.0682541 W
        Runtime Dynamic = 0.181945 W

          Instruction Cache:
            Area = 3.14635 mm^2
            Peak Dynamic = 1.457 W
            Subthreshold Leakage = 0.261248 W
            Subthreshold Leakage with power gating = 0.1284 W
            Gate Leakage = 0.029931 W
            Runtime Dynamic = 0.0694453 W

          Branch Target Buffer:
            Area = 0.64954 mm^2
            Peak Dynamic = 0.177867 W
            Subthreshold Leakage = 0.057776 W
            Subthreshold Leakage with power gating = 0.030989 W
            Gate Leakage = 0.00272758 W
            Runtime Dynamic = 0.00878932 W

          Branch Predictor:
            Area = 0.138516 mm^2
            Peak Dynamic = 0.0597838 W
            Subthreshold Leakage = 0.014215 W
            Subthreshold Leakage with power gating = 0.0073517 W
            Gate Leakage = 0.000757657 W
            Runtime Dynamic = 0.00300649 W

              Global Predictor:
                Area = 0.0435221 mm^2
                Peak Dynamic = 0.0168831 W
                Subthreshold Leakage = 0.00540773 W
                Subthreshold Leakage with power gating = 0.00279284 W
                Gate Leakage = 0.000278362 W
                Runtime Dynamic = 0.000927017 W

              Local Predictor:
              L1_Local Predictor:
                Area = 0.0257064 mm^2
                Peak Dynamic = 0.0142575 W
                Subthreshold Leakage = 0.00273579 W
                Subthreshold Leakage with power gating = 0.00141387 W
                Gate Leakage = 0.000154548 W
                Runtime Dynamic = 0.000810197 W

              L2_Local Predictor:
                Area = 0.0151917 mm^2
                Peak Dynamic = 0.00527447 W
                Subthreshold Leakage = 0.00129084 W
                Subthreshold Leakage with power gating = 0.000681231 W
                Gate Leakage = 8.00196e-05 W
                Runtime Dynamic = 0.000315154 W

              Chooser:
                Area = 0.0435221 mm^2
                Peak Dynamic = 0.0168831 W
                Subthreshold Leakage = 0.00540773 W
                Subthreshold Leakage with power gating = 0.00279284 W
                Gate Leakage = 0.000278362 W
                Runtime Dynamic = 0.000927017 W

              RAS:
                Area = 0.0105732 mm^2
                Peak Dynamic = 0.0117602 W
                Subthreshold Leakage = 0.000663763 W
                Subthreshold Leakage with power gating = 0.000352154 W
                Gate Leakage = 4.63858e-05 W
                Runtime Dynamic = 0.000342253 W

          Instruction Buffer:
            Area = 0.0226323 mm^2
            Peak Dynamic = 0.606827 W
            Subthreshold Leakage = 0.00108112 W
            Subthreshold Leakage with power gating = 0.000499461 W
            Gate Leakage = 6.83558e-05 W
            Runtime Dynamic = 0.0229058 W

          Instruction Decoder:
            Area = 1.85799 mm^2
            Peak Dynamic = 1.37404 W
            Subthreshold Leakage = 0.31529 W
            Subthreshold Leakage with power gating = 0.118234 W
            Gate Leakage = 0.0222493 W
            Runtime Dynamic = 0.0777985 W

      Load Store Unit:
        Area = 8.05439 mm^2
        Peak Dynamic = 1.94699 W
        Subthreshold Leakage = 0.453895 W
        Subthreshold Leakage with power gating = 0.212713 W
        Gate Leakage = 0.0437459 W
        Runtime Dynamic = 0.367524 W

          Data Cache:
            Area = 6.84535 mm^2
            Peak Dynamic = 1.81159 W
            Subthreshold Leakage = 0.375602 W
            Subthreshold Leakage with power gating = 0.178556 W
            Gate Leakage = 0.0279261 W
            Runtime Dynamic = 0.275866 W

          Load/Store Queue:
            Area = 0.322079 mm^2
            Peak Dynamic = 0.0458286 W
            Subthreshold Leakage = 0.0246015 W
            Subthreshold Leakage with power gating = 0.0140229 W
            Gate Leakage = 0.00329971 W
            Runtime Dynamic = 0.0916574 W

      Memory Management Unit:
        Area = 0.559739 mm^2
        Peak Dynamic = 0.750443 W
        Subthreshold Leakage = 0.0942255 W
        Subthreshold Leakage with power gating = 0.0432387 W
        Gate Leakage = 0.0173421 W
        Runtime Dynamic = 0.0276699 W

          Itlb:
            Area = 0.301552 mm^2
            Peak Dynamic = 0.0905912 W
            Subthreshold Leakage = 0.0294516 W
            Subthreshold Leakage with power gating = 0.0167874 W
            Gate Leakage = 0.00393464 W
            Runtime Dynamic = 0.0114052 W

          Dtlb:
            Area = 0.0879726 mm^2
            Peak Dynamic = 0.0162647 W
            Subthreshold Leakage = 0.0110828 W
            Subthreshold Leakage with power gating = 0.00631717 W
            Gate Leakage = 0.00088729 W
            Runtime Dynamic = 0.0162648 W

      Execution Unit:
        Area = 6.14103 mm^2
        Peak Dynamic = 0.184828 W
        Subthreshold Leakage = 1.25199 W
        Subthreshold Leakage with power gating = 0.469807 W
        Gate Leakage = 0.12351 W
        Runtime Dynamic = 0.181179 W

          Register Files:
            Area = 0.570804 mm^2
            Peak Dynamic = 0.0232979 W
            Subthreshold Leakage = 0.00721681 W
            Subthreshold Leakage with power gating = 0.00301552 W
            Gate Leakage = 0.000622708 W
            Runtime Dynamic = 0.027049 W

              Integer RF:
                Area = 0.362673 mm^2
                Peak Dynamic = 0.0232979 W
                Subthreshold Leakage = 0.00437174 W
                Subthreshold Leakage with power gating = 0.00175585 W
                Gate Leakage = 0.00038992 W
                Runtime Dynamic = 0.0238273 W

              Floating Point RF:
                Area = 0.208131 mm^2
                Peak Dynamic = 0 W
                Subthreshold Leakage = 0.00284507 W
                Subthreshold Leakage with power gating = 0.00125967 W
                Gate Leakage = 0.000232788 W
                Runtime Dynamic = 0.00322177 W

          Instruction Scheduler:
            Area = 0 mm^2
            Peak Dynamic = 0 W
            Subthreshold Leakage = 0 W
            Subthreshold Leakage with power gating = -nan W
            Gate Leakage = 0 W
            Runtime Dynamic = 0 W

          Integer ALUs (Count: 6 ):
            Area = 0.47087 mm^2
            Peak Dynamic = 0.084025 W
            Subthreshold Leakage = 0.286303 W
            Subthreshold Leakage with power gating = 0.107364 W
            Gate Leakage = 0.0265291 W
            Runtime Dynamic = 0.0715818 W

          Floating Point Units (FPUs) (Count: 2 ):
            Area = 4.6585 mm^2
            Peak Dynamic = 0 W
            Subthreshold Leakage = 0.708126 W
            Subthreshold Leakage with power gating = 0.265547 W
            Gate Leakage = 0.0656156 W
            Runtime Dynamic = 0 W

          Complex ALUs (Mul/Div) (Count: 1 ):
            Area = 0.235435 mm^2
            Peak Dynamic = 0 W
            Subthreshold Leakage = 0.143151 W
            Subthreshold Leakage with power gating = 0.0536818 W
            Gate Leakage = 0.0132646 W
            Runtime Dynamic = 0 W

          Results Broadcast Bus:
            Area Overhead = 0.0352036 mm^2
            Peak Dynamic = 0.0322992 W
            Subthreshold Leakage = 0.0535057 W
            Subthreshold Leakage with power gating = 0.0200646 W
            Gate Leakage = 0.00495789 W
            Runtime Dynamic = 0.0825482 W

    L2
    Area = 4.53318 mm^2
    Peak Dynamic = 0 W
    Subthreshold Leakage = 0.593748 W
    Subthreshold Leakage with power gating = 0.285481 W
    Gate Leakage = 0.015464 W
    Runtime Dynamic = 3.74083e-06 W

*****************************************************************************************
Core:
      Area = 25.6888 mm^2
      Peak Dynamic = 6.82721 W
      Subthreshold Leakage = 3.22341 W
      Subthreshold Leakage with power gating = 1.36419 W
      Gate Leakage = 0.280015 W
      Runtime Dynamic = 0.75778 W

      Instruction Fetch Unit:
        Area = 5.98523 mm^2
        Peak Dynamic = 3.94563 W
        Subthreshold Leakage = 0.703301 W
        Subthreshold Leakage with power gating = 0.305608 W
        Gate Leakage = 0.0682541 W
        Runtime Dynamic = 0.181804 W

          Instruction Cache:
            Area = 3.14635 mm^2
            Peak Dynamic = 1.45605 W
            Subthreshold Leakage = 0.261248 W
            Subthreshold Leakage with power gating = 0.1284 W
            Gate Leakage = 0.029931 W
            Runtime Dynamic = 0.0693767 W

          Branch Target Buffer:
            Area = 0.64954 mm^2
            Peak Dynamic = 0.177867 W
            Subthreshold Leakage = 0.057776 W
            Subthreshold Leakage with power gating = 0.030989 W
            Gate Leakage = 0.00272758 W
            Runtime Dynamic = 0.00878433 W

          Branch Predictor:
            Area = 0.138516 mm^2
            Peak Dynamic = 0.0597838 W
            Subthreshold Leakage = 0.014215 W
            Subthreshold Leakage with power gating = 0.0073517 W
            Gate Leakage = 0.000757657 W
            Runtime Dynamic = 0.00300424 W

              Global Predictor:
                Area = 0.0435221 mm^2
                Peak Dynamic = 0.0168831 W
                Subthreshold Leakage = 0.00540773 W
                Subthreshold Leakage with power gating = 0.00279284 W
                Gate Leakage = 0.000278362 W
                Runtime Dynamic = 0.000926328 W

              Local Predictor:
              L1_Local Predictor:
                Area = 0.0257064 mm^2
                Peak Dynamic = 0.0142575 W
                Subthreshold Leakage = 0.00273579 W
                Subthreshold Leakage with power gating = 0.00141387 W
                Gate Leakage = 0.000154548 W
                Runtime Dynamic = 0.000809552 W

              L2_Local Predictor:
                Area = 0.0151917 mm^2
                Peak Dynamic = 0.00527447 W
                Subthreshold Leakage = 0.00129084 W
                Subthreshold Leakage with power gating = 0.000681231 W
                Gate Leakage = 8.00196e-05 W
                Runtime Dynamic = 0.000314879 W

              Chooser:
                Area = 0.0435221 mm^2
                Peak Dynamic = 0.0168831 W
                Subthreshold Leakage = 0.00540773 W
                Subthreshold Leakage with power gating = 0.00279284 W
                Gate Leakage = 0.000278362 W
                Runtime Dynamic = 0.000926328 W

              RAS:
                Area = 0.0105732 mm^2
                Peak Dynamic = 0.0117602 W
                Subthreshold Leakage = 0.000663763 W
                Subthreshold Leakage with power gating = 0.000352154 W
                Gate Leakage = 4.63858e-05 W
                Runtime Dynamic = 0.000342027 W

          Instruction Buffer:
            Area = 0.0226323 mm^2
            Peak Dynamic = 0.606827 W
            Subthreshold Leakage = 0.00108112 W
            Subthreshold Leakage with power gating = 0.000499461 W
            Gate Leakage = 6.83558e-05 W
            Runtime Dynamic = 0.0228909 W

          Instruction Decoder:
            Area = 1.85799 mm^2
            Peak Dynamic = 1.37404 W
            Subthreshold Leakage = 0.31529 W
            Subthreshold Leakage with power gating = 0.118234 W
            Gate Leakage = 0.0222493 W
            Runtime Dynamic = 0.0777477 W

      Load Store Unit:
        Area = 8.05439 mm^2
        Peak Dynamic = 1.94653 W
        Subthreshold Leakage = 0.453895 W
        Subthreshold Leakage with power gating = 0.212713 W
        Gate Leakage = 0.0437459 W
        Runtime Dynamic = 0.367285 W

          Data Cache:
            Area = 6.84535 mm^2
            Peak Dynamic = 1.81122 W
            Subthreshold Leakage = 0.375602 W
            Subthreshold Leakage with power gating = 0.178556 W
            Gate Leakage = 0.0279261 W
            Runtime Dynamic = 0.275687 W

          Load/Store Queue:
            Area = 0.322079 mm^2
            Peak Dynamic = 0.0457992 W
            Subthreshold Leakage = 0.0246015 W
            Subthreshold Leakage with power gating = 0.0140229 W
            Gate Leakage = 0.00329971 W
            Runtime Dynamic = 0.0915977 W

      Memory Management Unit:
        Area = 0.559739 mm^2
        Peak Dynamic = 0.750345 W
        Subthreshold Leakage = 0.0942255 W
        Subthreshold Leakage with power gating = 0.0432387 W
        Gate Leakage = 0.0173421 W
        Runtime Dynamic = 0.0276481 W

          Itlb:
            Area = 0.301552 mm^2
            Peak Dynamic = 0.090532 W
            Subthreshold Leakage = 0.0294516 W
            Subthreshold Leakage with power gating = 0.0167874 W
            Gate Leakage = 0.00393464 W
            Runtime Dynamic = 0.0113939 W

          Dtlb:
            Area = 0.0879726 mm^2
            Peak Dynamic = 0.0162543 W
            Subthreshold Leakage = 0.0110828 W
            Subthreshold Leakage with power gating = 0.00631717 W
            Gate Leakage = 0.00088729 W
            Runtime Dynamic = 0.0162542 W

      Execution Unit:
        Area = 6.14103 mm^2
        Peak Dynamic = 0.184706 W
        Subthreshold Leakage = 1.25199 W
        Subthreshold Leakage with power gating = 0.469807 W
        Gate Leakage = 0.12351 W
        Runtime Dynamic = 0.18104 W

          Register Files:
            Area = 0.570804 mm^2
            Peak Dynamic = 0.0232825 W
            Subthreshold Leakage = 0.00721681 W
            Subthreshold Leakage with power gating = 0.00301552 W
            Gate Leakage = 0.000622708 W
            Runtime Dynamic = 0.0270313 W

              Integer RF:
                Area = 0.362673 mm^2
                Peak Dynamic = 0.0232825 W
                Subthreshold Leakage = 0.00437174 W
                Subthreshold Leakage with power gating = 0.00175585 W
                Gate Leakage = 0.00038992 W
                Runtime Dynamic = 0.0238117 W

              Floating Point RF:
                Area = 0.208131 mm^2
                Peak Dynamic = 0 W
                Subthreshold Leakage = 0.00284507 W
                Subthreshold Leakage with power gating = 0.00125967 W
                Gate Leakage = 0.000232788 W
                Runtime Dynamic = 0.00321963 W

          Instruction Scheduler:
            Area = 0 mm^2
            Peak Dynamic = 0 W
            Subthreshold Leakage = 0 W
            Subthreshold Leakage with power gating = -nan W
            Gate Leakage = 0 W
            Runtime Dynamic = 0 W

          Integer ALUs (Count: 6 ):
            Area = 0.47087 mm^2
            Peak Dynamic = 0.0839693 W
            Subthreshold Leakage = 0.286303 W
            Subthreshold Leakage with power gating = 0.107364 W
            Gate Leakage = 0.0265291 W
            Runtime Dynamic = 0.0715255 W

          Floating Point Units (FPUs) (Count: 2 ):
            Area = 4.6585 mm^2
            Peak Dynamic = 0 W
            Subthreshold Leakage = 0.708126 W
            Subthreshold Leakage with power gating = 0.265547 W
            Gate Leakage = 0.0656156 W
            Runtime Dynamic = 0 W

          Complex ALUs (Mul/Div) (Count: 1 ):
            Area = 0.235435 mm^2
            Peak Dynamic = 0 W
            Subthreshold Leakage = 0.143151 W
            Subthreshold Leakage with power gating = 0.0536818 W
            Gate Leakage = 0.0132646 W
            Runtime Dynamic = 0 W

          Results Broadcast Bus:
            Area Overhead = 0.0352036 mm^2
            Peak Dynamic = 0.0322778 W
            Subthreshold Leakage = 0.0535057 W
            Subthreshold Leakage with power gating = 0.0200646 W
            Gate Leakage = 0.00495789 W
            Runtime Dynamic = 0.0824833 W

    L2
    Area = 4.53318 mm^2
    Peak Dynamic = 0 W
    Subthreshold Leakage = 0.593748 W
    Subthreshold Leakage with power gating = 0.285481 W
    Gate Leakage = 0.015464 W
    Runtime Dynamic = 3.74083e-06 W

*****************************************************************************************
Core:
      Area = 25.6888 mm^2
      Peak Dynamic = 6.84047 W
      Subthreshold Leakage = 3.22341 W
      Subthreshold Leakage with power gating = 1.36419 W
      Gate Leakage = 0.280015 W
      Runtime Dynamic = 0.761895 W

      Instruction Fetch Unit:
        Area = 5.98523 mm^2
        Peak Dynamic = 3.9532 W
        Subthreshold Leakage = 0.703301 W
        Subthreshold Leakage with power gating = 0.305608 W
        Gate Leakage = 0.0682541 W
        Runtime Dynamic = 0.182777 W

          Instruction Cache:
            Area = 3.14635 mm^2
            Peak Dynamic = 1.46244 W
            Subthreshold Leakage = 0.261248 W
            Subthreshold Leakage with power gating = 0.1284 W
            Gate Leakage = 0.029931 W
            Runtime Dynamic = 0.0698473 W

          Branch Target Buffer:
            Area = 0.64954 mm^2
            Peak Dynamic = 0.177867 W
            Subthreshold Leakage = 0.057776 W
            Subthreshold Leakage with power gating = 0.030989 W
            Gate Leakage = 0.00272758 W
            Runtime Dynamic = 0.00882828 W

          Branch Predictor:
            Area = 0.138516 mm^2
            Peak Dynamic = 0.0597838 W
            Subthreshold Leakage = 0.014215 W
            Subthreshold Leakage with power gating = 0.0073517 W
            Gate Leakage = 0.000757657 W
            Runtime Dynamic = 0.00302155 W

              Global Predictor:
                Area = 0.0435221 mm^2
                Peak Dynamic = 0.0168831 W
                Subthreshold Leakage = 0.00540773 W
                Subthreshold Leakage with power gating = 0.00279284 W
                Gate Leakage = 0.000278362 W
                Runtime Dynamic = 0.00093175 W

              Local Predictor:
              L1_Local Predictor:
                Area = 0.0257064 mm^2
                Peak Dynamic = 0.0142575 W
                Subthreshold Leakage = 0.00273579 W
                Subthreshold Leakage with power gating = 0.00141387 W
                Gate Leakage = 0.000154548 W
                Runtime Dynamic = 0.000814499 W

              L2_Local Predictor:
                Area = 0.0151917 mm^2
                Peak Dynamic = 0.00527447 W
                Subthreshold Leakage = 0.00129084 W
                Subthreshold Leakage with power gating = 0.000681231 W
                Gate Leakage = 8.00196e-05 W
                Runtime Dynamic = 0.000316917 W

              Chooser:
                Area = 0.0435221 mm^2
                Peak Dynamic = 0.0168831 W
                Subthreshold Leakage = 0.00540773 W
                Subthreshold Leakage with power gating = 0.00279284 W
                Gate Leakage = 0.000278362 W
                Runtime Dynamic = 0.00093175 W

              RAS:
                Area = 0.0105732 mm^2
                Peak Dynamic = 0.0117602 W
                Subthreshold Leakage = 0.000663763 W
                Subthreshold Leakage with power gating = 0.000352154 W
                Gate Leakage = 4.63858e-05 W
                Runtime Dynamic = 0.000343555 W

          Instruction Buffer:
            Area = 0.0226323 mm^2
            Peak Dynamic = 0.606827 W
            Subthreshold Leakage = 0.00108112 W
            Subthreshold Leakage with power gating = 0.000499461 W
            Gate Leakage = 6.83558e-05 W
            Runtime Dynamic = 0.0229912 W

          Instruction Decoder:
            Area = 1.85799 mm^2
            Peak Dynamic = 1.37404 W
            Subthreshold Leakage = 0.31529 W
            Subthreshold Leakage with power gating = 0.118234 W
            Gate Leakage = 0.0222493 W
            Runtime Dynamic = 0.0780885 W

      Load Store Unit:
        Area = 8.05439 mm^2
        Peak Dynamic = 1.95065 W
        Subthreshold Leakage = 0.453895 W
        Subthreshold Leakage with power gating = 0.212713 W
        Gate Leakage = 0.0437459 W
        Runtime Dynamic = 0.369419 W

          Data Cache:
            Area = 6.84535 mm^2
            Peak Dynamic = 1.81455 W
            Subthreshold Leakage = 0.375602 W
            Subthreshold Leakage with power gating = 0.178556 W
            Gate Leakage = 0.0279261 W
            Runtime Dynamic = 0.277289 W

          Load/Store Queue:
            Area = 0.322079 mm^2
            Peak Dynamic = 0.0460651 W
            Subthreshold Leakage = 0.0246015 W
            Subthreshold Leakage with power gating = 0.0140229 W
            Gate Leakage = 0.00329971 W
            Runtime Dynamic = 0.09213 W

      Memory Management Unit:
        Area = 0.559739 mm^2
        Peak Dynamic = 0.751096 W
        Subthreshold Leakage = 0.0942255 W
        Subthreshold Leakage with power gating = 0.0432387 W
        Gate Leakage = 0.0173421 W
        Runtime Dynamic = 0.0278205 W

          Itlb:
            Area = 0.301552 mm^2
            Peak Dynamic = 0.0909292 W
            Subthreshold Leakage = 0.0294516 W
            Subthreshold Leakage with power gating = 0.0167874 W
            Gate Leakage = 0.00393464 W
            Runtime Dynamic = 0.0114719 W

          Dtlb:
            Area = 0.0879726 mm^2
            Peak Dynamic = 0.0163487 W
            Subthreshold Leakage = 0.0110828 W
            Subthreshold Leakage with power gating = 0.00631717 W
            Gate Leakage = 0.00088729 W
            Runtime Dynamic = 0.0163486 W

      Execution Unit:
        Area = 6.14103 mm^2
        Peak Dynamic = 0.185519 W
        Subthreshold Leakage = 1.25199 W
        Subthreshold Leakage with power gating = 0.469807 W
        Gate Leakage = 0.12351 W
        Runtime Dynamic = 0.181875 W

          Register Files:
            Area = 0.570804 mm^2
            Peak Dynamic = 0.0233849 W
            Subthreshold Leakage = 0.00721681 W
            Subthreshold Leakage with power gating = 0.00301552 W
            Gate Leakage = 0.000622708 W
            Runtime Dynamic = 0.0271498 W

              Integer RF:
                Area = 0.362673 mm^2
                Peak Dynamic = 0.0233849 W
                Subthreshold Leakage = 0.00437174 W
                Subthreshold Leakage with power gating = 0.00175585 W
                Gate Leakage = 0.00038992 W
                Runtime Dynamic = 0.023916 W

              Floating Point RF:
                Area = 0.208131 mm^2
                Peak Dynamic = 0 W
                Subthreshold Leakage = 0.00284507 W
                Subthreshold Leakage with power gating = 0.00125967 W
                Gate Leakage = 0.000232788 W
                Runtime Dynamic = 0.00323376 W

          Instruction Scheduler:
            Area = 0 mm^2
            Peak Dynamic = 0 W
            Subthreshold Leakage = 0 W
            Subthreshold Leakage with power gating = -nan W
            Gate Leakage = 0 W
            Runtime Dynamic = 0 W

          Integer ALUs (Count: 6 ):
            Area = 0.47087 mm^2
            Peak Dynamic = 0.0843388 W
            Subthreshold Leakage = 0.286303 W
            Subthreshold Leakage with power gating = 0.107364 W
            Gate Leakage = 0.0265291 W
            Runtime Dynamic = 0.0718582 W

          Floating Point Units (FPUs) (Count: 2 ):
            Area = 4.6585 mm^2
            Peak Dynamic = 0 W
            Subthreshold Leakage = 0.708126 W
            Subthreshold Leakage with power gating = 0.265547 W
            Gate Leakage = 0.0656156 W
            Runtime Dynamic = 0 W

          Complex ALUs (Mul/Div) (Count: 1 ):
            Area = 0.235435 mm^2
            Peak Dynamic = 0 W
            Subthreshold Leakage = 0.143151 W
            Subthreshold Leakage with power gating = 0.0536818 W
            Gate Leakage = 0.0132646 W
            Runtime Dynamic = 0 W

          Results Broadcast Bus:
            Area Overhead = 0.0352036 mm^2
            Peak Dynamic = 0.0324199 W
            Subthreshold Leakage = 0.0535057 W
            Subthreshold Leakage with power gating = 0.0200646 W
            Gate Leakage = 0.00495789 W
            Runtime Dynamic = 0.082867 W

    L2
    Area = 4.53318 mm^2
    Peak Dynamic = 0 W
    Subthreshold Leakage = 0.593748 W
    Subthreshold Leakage with power gating = 0.285481 W
    Gate Leakage = 0.015464 W
    Runtime Dynamic = 3.74083e-06 W

*****************************************************************************************
Core:
      Area = 25.6888 mm^2
      Peak Dynamic = 6.84062 W
      Subthreshold Leakage = 3.22341 W
      Subthreshold Leakage with power gating = 1.36419 W
      Gate Leakage = 0.280015 W
      Runtime Dynamic = 0.761963 W

      Instruction Fetch Unit:
        Area = 5.98523 mm^2
        Peak Dynamic = 3.95326 W
        Subthreshold Leakage = 0.703301 W
        Subthreshold Leakage with power gating = 0.305608 W
        Gate Leakage = 0.0682541 W
        Runtime Dynamic = 0.182785 W

          Instruction Cache:
            Area = 3.14635 mm^2
            Peak Dynamic = 1.46249 W
            Subthreshold Leakage = 0.261248 W
            Subthreshold Leakage with power gating = 0.1284 W
            Gate Leakage = 0.029931 W
            Runtime Dynamic = 0.0698518 W

          Branch Target Buffer:
            Area = 0.64954 mm^2
            Peak Dynamic = 0.177867 W
            Subthreshold Leakage = 0.057776 W
            Subthreshold Leakage with power gating = 0.030989 W
            Gate Leakage = 0.00272758 W
            Runtime Dynamic = 0.00882828 W

          Branch Predictor:
            Area = 0.138516 mm^2
            Peak Dynamic = 0.0597838 W
            Subthreshold Leakage = 0.014215 W
            Subthreshold Leakage with power gating = 0.0073517 W
            Gate Leakage = 0.000757657 W
            Runtime Dynamic = 0.00302155 W

              Global Predictor:
                Area = 0.0435221 mm^2
                Peak Dynamic = 0.0168831 W
                Subthreshold Leakage = 0.00540773 W
                Subthreshold Leakage with power gating = 0.00279284 W
                Gate Leakage = 0.000278362 W
                Runtime Dynamic = 0.00093175 W

              Local Predictor:
              L1_Local Predictor:
                Area = 0.0257064 mm^2
                Peak Dynamic = 0.0142575 W
                Subthreshold Leakage = 0.00273579 W
                Subthreshold Leakage with power gating = 0.00141387 W
                Gate Leakage = 0.000154548 W
                Runtime Dynamic = 0.000814499 W

              L2_Local Predictor:
                Area = 0.0151917 mm^2
                Peak Dynamic = 0.00527447 W
                Subthreshold Leakage = 0.00129084 W
                Subthreshold Leakage with power gating = 0.000681231 W
                Gate Leakage = 8.00196e-05 W
                Runtime Dynamic = 0.000316917 W

              Chooser:
                Area = 0.0435221 mm^2
                Peak Dynamic = 0.0168831 W
                Subthreshold Leakage = 0.00540773 W
                Subthreshold Leakage with power gating = 0.00279284 W
                Gate Leakage = 0.000278362 W
                Runtime Dynamic = 0.00093175 W

              RAS:
                Area = 0.0105732 mm^2
                Peak Dynamic = 0.0117602 W
                Subthreshold Leakage = 0.000663763 W
                Subthreshold Leakage with power gating = 0.000352154 W
                Gate Leakage = 4.63858e-05 W
                Runtime Dynamic = 0.000343555 W

          Instruction Buffer:
            Area = 0.0226323 mm^2
            Peak Dynamic = 0.606827 W
            Subthreshold Leakage = 0.00108112 W
            Subthreshold Leakage with power gating = 0.000499461 W
            Gate Leakage = 6.83558e-05 W
            Runtime Dynamic = 0.022992 W

          Instruction Decoder:
            Area = 1.85799 mm^2
            Peak Dynamic = 1.37404 W
            Subthreshold Leakage = 0.31529 W
            Subthreshold Leakage with power gating = 0.118234 W
            Gate Leakage = 0.0222493 W
            Runtime Dynamic = 0.0780911 W

      Load Store Unit:
        Area = 8.05439 mm^2
        Peak Dynamic = 1.95074 W
        Subthreshold Leakage = 0.453895 W
        Subthreshold Leakage with power gating = 0.212713 W
        Gate Leakage = 0.0437459 W
        Runtime Dynamic = 0.369465 W

          Data Cache:
            Area = 6.84535 mm^2
            Peak Dynamic = 1.81462 W
            Subthreshold Leakage = 0.375602 W
            Subthreshold Leakage with power gating = 0.178556 W
            Gate Leakage = 0.0279261 W
            Runtime Dynamic = 0.277323 W

          Load/Store Queue:
            Area = 0.322079 mm^2
            Peak Dynamic = 0.0460706 W
            Subthreshold Leakage = 0.0246015 W
            Subthreshold Leakage with power gating = 0.0140229 W
            Gate Leakage = 0.00329971 W
            Runtime Dynamic = 0.0921415 W

      Memory Management Unit:
        Area = 0.559739 mm^2
        Peak Dynamic = 0.751106 W
        Subthreshold Leakage = 0.0942255 W
        Subthreshold Leakage with power gating = 0.0432387 W
        Gate Leakage = 0.0173421 W
        Runtime Dynamic = 0.0278233 W

          Itlb:
            Area = 0.301552 mm^2
            Peak Dynamic = 0.090932 W
            Subthreshold Leakage = 0.0294516 W
            Subthreshold Leakage with power gating = 0.0167874 W
            Gate Leakage = 0.00393464 W
            Runtime Dynamic = 0.0114727 W

          Dtlb:
            Area = 0.0879726 mm^2
            Peak Dynamic = 0.0163506 W
            Subthreshold Leakage = 0.0110828 W
            Subthreshold Leakage with power gating = 0.00631717 W
            Gate Leakage = 0.00088729 W
            Runtime Dynamic = 0.0163507 W

      Execution Unit:
        Area = 6.14103 mm^2
        Peak Dynamic = 0.185523 W
        Subthreshold Leakage = 1.25199 W
        Subthreshold Leakage with power gating = 0.469807 W
        Gate Leakage = 0.12351 W
        Runtime Dynamic = 0.181886 W

          Register Files:
            Area = 0.570804 mm^2
            Peak Dynamic = 0.0233855 W
            Subthreshold Leakage = 0.00721681 W
            Subthreshold Leakage with power gating = 0.00301552 W
            Gate Leakage = 0.000622708 W
            Runtime Dynamic = 0.0271507 W

              Integer RF:
                Area = 0.362673 mm^2
                Peak Dynamic = 0.0233855 W
                Subthreshold Leakage = 0.00437174 W
                Subthreshold Leakage with power gating = 0.00175585 W
                Gate Leakage = 0.00038992 W
                Runtime Dynamic = 0.0239168 W

              Floating Point RF:
                Area = 0.208131 mm^2
                Peak Dynamic = 0 W
                Subthreshold Leakage = 0.00284507 W
                Subthreshold Leakage with power gating = 0.00125967 W
                Gate Leakage = 0.000232788 W
                Runtime Dynamic = 0.00323391 W

          Instruction Scheduler:
            Area = 0 mm^2
            Peak Dynamic = 0 W
            Subthreshold Leakage = 0 W
            Subthreshold Leakage with power gating = -nan W
            Gate Leakage = 0 W
            Runtime Dynamic = 0 W

          Integer ALUs (Count: 6 ):
            Area = 0.47087 mm^2
            Peak Dynamic = 0.084341 W
            Subthreshold Leakage = 0.286303 W
            Subthreshold Leakage with power gating = 0.107364 W
            Gate Leakage = 0.0265291 W
            Runtime Dynamic = 0.0718631 W

          Floating Point Units (FPUs) (Count: 2 ):
            Area = 4.6585 mm^2
            Peak Dynamic = 0 W
            Subthreshold Leakage = 0.708126 W
            Subthreshold Leakage with power gating = 0.265547 W
            Gate Leakage = 0.0656156 W
            Runtime Dynamic = 0 W

          Complex ALUs (Mul/Div) (Count: 1 ):
            Area = 0.235435 mm^2
            Peak Dynamic = 0 W
            Subthreshold Leakage = 0.143151 W
            Subthreshold Leakage with power gating = 0.0536818 W
            Gate Leakage = 0.0132646 W
            Runtime Dynamic = 0 W

          Results Broadcast Bus:
            Area Overhead = 0.0352036 mm^2
            Peak Dynamic = 0.0324207 W
            Subthreshold Leakage = 0.0535057 W
            Subthreshold Leakage with power gating = 0.0200646 W
            Gate Leakage = 0.00495789 W
            Runtime Dynamic = 0.0828726 W

    L2
    Area = 4.53318 mm^2
    Peak Dynamic = 0 W
    Subthreshold Leakage = 0.593748 W
    Subthreshold Leakage with power gating = 0.285481 W
    Gate Leakage = 0.015464 W
    Runtime Dynamic = 3.74083e-06 W

*****************************************************************************************
Core:
      Area = 25.6888 mm^2
      Peak Dynamic = 6.83966 W
      Subthreshold Leakage = 3.22341 W
      Subthreshold Leakage with power gating = 1.36419 W
      Gate Leakage = 0.280015 W
      Runtime Dynamic = 0.761622 W

      Instruction Fetch Unit:
        Area = 5.98523 mm^2
        Peak Dynamic = 3.95283 W
        Subthreshold Leakage = 0.703301 W
        Subthreshold Leakage with power gating = 0.305608 W
        Gate Leakage = 0.0682541 W
        Runtime Dynamic = 0.182735 W

          Instruction Cache:
            Area = 3.14635 mm^2
            Peak Dynamic = 1.46213 W
            Subthreshold Leakage = 0.261248 W
            Subthreshold Leakage with power gating = 0.1284 W
            Gate Leakage = 0.029931 W
            Runtime Dynamic = 0.069829 W

          Branch Target Buffer:
            Area = 0.64954 mm^2
            Peak Dynamic = 0.177867 W
            Subthreshold Leakage = 0.057776 W
            Subthreshold Leakage with power gating = 0.030989 W
            Gate Leakage = 0.00272758 W
            Runtime Dynamic = 0.00882662 W

          Branch Predictor:
            Area = 0.138516 mm^2
            Peak Dynamic = 0.0597838 W
            Subthreshold Leakage = 0.014215 W
            Subthreshold Leakage with power gating = 0.0073517 W
            Gate Leakage = 0.000757657 W
            Runtime Dynamic = 0.00302088 W

              Global Predictor:
                Area = 0.0435221 mm^2
                Peak Dynamic = 0.0168831 W
                Subthreshold Leakage = 0.00540773 W
                Subthreshold Leakage with power gating = 0.00279284 W
                Gate Leakage = 0.000278362 W
                Runtime Dynamic = 0.000931558 W

              Local Predictor:
              L1_Local Predictor:
                Area = 0.0257064 mm^2
                Peak Dynamic = 0.0142575 W
                Subthreshold Leakage = 0.00273579 W
                Subthreshold Leakage with power gating = 0.00141387 W
                Gate Leakage = 0.000154548 W
                Runtime Dynamic = 0.000814327 W

              L2_Local Predictor:
                Area = 0.0151917 mm^2
                Peak Dynamic = 0.00527447 W
                Subthreshold Leakage = 0.00129084 W
                Subthreshold Leakage with power gating = 0.000681231 W
                Gate Leakage = 8.00196e-05 W
                Runtime Dynamic = 0.000316848 W

              Chooser:
                Area = 0.0435221 mm^2
                Peak Dynamic = 0.0168831 W
                Subthreshold Leakage = 0.00540773 W
                Subthreshold Leakage with power gating = 0.00279284 W
                Gate Leakage = 0.000278362 W
                Runtime Dynamic = 0.000931558 W

              RAS:
                Area = 0.0105732 mm^2
                Peak Dynamic = 0.0117602 W
                Subthreshold Leakage = 0.000663763 W
                Subthreshold Leakage with power gating = 0.000352154 W
                Gate Leakage = 4.63858e-05 W
                Runtime Dynamic = 0.000343441 W

          Instruction Buffer:
            Area = 0.0226323 mm^2
            Peak Dynamic = 0.606827 W
            Subthreshold Leakage = 0.00108112 W
            Subthreshold Leakage with power gating = 0.000499461 W
            Gate Leakage = 6.83558e-05 W
            Runtime Dynamic = 0.0229863 W

          Instruction Decoder:
            Area = 1.85799 mm^2
            Peak Dynamic = 1.37404 W
            Subthreshold Leakage = 0.31529 W
            Subthreshold Leakage with power gating = 0.118234 W
            Gate Leakage = 0.0222493 W
            Runtime Dynamic = 0.0780718 W

      Load Store Unit:
        Area = 8.05439 mm^2
        Peak Dynamic = 1.95031 W
        Subthreshold Leakage = 0.453895 W
        Subthreshold Leakage with power gating = 0.212713 W
        Gate Leakage = 0.0437459 W
        Runtime Dynamic = 0.369244 W

          Data Cache:
            Area = 6.84535 mm^2
            Peak Dynamic = 1.81428 W
            Subthreshold Leakage = 0.375602 W
            Subthreshold Leakage with power gating = 0.178556 W
            Gate Leakage = 0.0279261 W
            Runtime Dynamic = 0.277158 W

          Load/Store Queue:
            Area = 0.322079 mm^2
            Peak Dynamic = 0.046043 W
            Subthreshold Leakage = 0.0246015 W
            Subthreshold Leakage with power gating = 0.0140229 W
            Gate Leakage = 0.00329971 W
            Runtime Dynamic = 0.0920865 W

      Memory Management Unit:
        Area = 0.559739 mm^2
        Peak Dynamic = 0.751047 W
        Subthreshold Leakage = 0.0942255 W
        Subthreshold Leakage with power gating = 0.0432387 W
        Gate Leakage = 0.0173421 W
        Runtime Dynamic = 0.0278094 W

          Itlb:
            Area = 0.301552 mm^2
            Peak Dynamic = 0.0909096 W
            Subthreshold Leakage = 0.0294516 W
            Subthreshold Leakage with power gating = 0.0167874 W
            Gate Leakage = 0.00393464 W
            Runtime Dynamic = 0.0114685 W

          Dtlb:
            Area = 0.0879726 mm^2
            Peak Dynamic = 0.0163408 W
            Subthreshold Leakage = 0.0110828 W
            Subthreshold Leakage with power gating = 0.00631717 W
            Gate Leakage = 0.00088729 W
            Runtime Dynamic = 0.0163409 W

      Execution Unit:
        Area = 6.14103 mm^2
        Peak Dynamic = 0.185474 W
        Subthreshold Leakage = 1.25199 W
        Subthreshold Leakage with power gating = 0.469807 W
        Gate Leakage = 0.12351 W
        Runtime Dynamic = 0.18183 W

          Register Files:
            Area = 0.570804 mm^2
            Peak Dynamic = 0.0233794 W
            Subthreshold Leakage = 0.00721681 W
            Subthreshold Leakage with power gating = 0.00301552 W
            Gate Leakage = 0.000622708 W
            Runtime Dynamic = 0.027144 W

              Integer RF:
                Area = 0.362673 mm^2
                Peak Dynamic = 0.0233794 W
                Subthreshold Leakage = 0.00437174 W
                Subthreshold Leakage with power gating = 0.00175585 W
                Gate Leakage = 0.00038992 W
                Runtime Dynamic = 0.023911 W

              Floating Point RF:
                Area = 0.208131 mm^2
                Peak Dynamic = 0 W
                Subthreshold Leakage = 0.00284507 W
                Subthreshold Leakage with power gating = 0.00125967 W
                Gate Leakage = 0.000232788 W
                Runtime Dynamic = 0.00323306 W

          Instruction Scheduler:
            Area = 0 mm^2
            Peak Dynamic = 0 W
            Subthreshold Leakage = 0 W
            Subthreshold Leakage with power gating = -nan W
            Gate Leakage = 0 W
            Runtime Dynamic = 0 W

          Integer ALUs (Count: 6 ):
            Area = 0.47087 mm^2
            Peak Dynamic = 0.0843188 W
            Subthreshold Leakage = 0.286303 W
            Subthreshold Leakage with power gating = 0.107364 W
            Gate Leakage = 0.0265291 W
            Runtime Dynamic = 0.0718402 W

          Floating Point Units (FPUs) (Count: 2 ):
            Area = 4.6585 mm^2
            Peak Dynamic = 0 W
            Subthreshold Leakage = 0.708126 W
            Subthreshold Leakage with power gating = 0.265547 W
            Gate Leakage = 0.0656156 W
            Runtime Dynamic = 0 W

          Complex ALUs (Mul/Div) (Count: 1 ):
            Area = 0.235435 mm^2
            Peak Dynamic = 0 W
            Subthreshold Leakage = 0.143151 W
            Subthreshold Leakage with power gating = 0.0536818 W
            Gate Leakage = 0.0132646 W
            Runtime Dynamic = 0 W

          Results Broadcast Bus:
            Area Overhead = 0.0352036 mm^2
            Peak Dynamic = 0.0324122 W
            Subthreshold Leakage = 0.0535057 W
            Subthreshold Leakage with power gating = 0.0200646 W
            Gate Leakage = 0.00495789 W
            Runtime Dynamic = 0.0828461 W

    L2
    Area = 4.53318 mm^2
    Peak Dynamic = 0 W
    Subthreshold Leakage = 0.593748 W
    Subthreshold Leakage with power gating = 0.285481 W
    Gate Leakage = 0.015464 W
    Runtime Dynamic = 3.74083e-06 W

*****************************************************************************************
Core:
      Area = 25.6888 mm^2
      Peak Dynamic = 6.84574 W
      Subthreshold Leakage = 3.22341 W
      Subthreshold Leakage with power gating = 1.36419 W
      Gate Leakage = 0.280015 W
      Runtime Dynamic = 0.763298 W

      Instruction Fetch Unit:
        Area = 5.98523 mm^2
        Peak Dynamic = 3.95663 W
        Subthreshold Leakage = 0.703301 W
        Subthreshold Leakage with power gating = 0.305608 W
        Gate Leakage = 0.0682541 W
        Runtime Dynamic = 0.183185 W

          Instruction Cache:
            Area = 3.14635 mm^2
            Peak Dynamic = 1.46533 W
            Subthreshold Leakage = 0.261248 W
            Subthreshold Leakage with power gating = 0.1284 W
            Gate Leakage = 0.029931 W
            Runtime Dynamic = 0.07003 W

          Branch Target Buffer:
            Area = 0.64954 mm^2
            Peak Dynamic = 0.177867 W
            Subthreshold Leakage = 0.057776 W
            Subthreshold Leakage with power gating = 0.030989 W
            Gate Leakage = 0.00272758 W
            Runtime Dynamic = 0.0088466 W

          Branch Predictor:
            Area = 0.138516 mm^2
            Peak Dynamic = 0.0597838 W
            Subthreshold Leakage = 0.014215 W
            Subthreshold Leakage with power gating = 0.0073517 W
            Gate Leakage = 0.000757657 W
            Runtime Dynamic = 0.00302906 W

              Global Predictor:
                Area = 0.0435221 mm^2
                Peak Dynamic = 0.0168831 W
                Subthreshold Leakage = 0.00540773 W
                Subthreshold Leakage with power gating = 0.00279284 W
                Gate Leakage = 0.000278362 W
                Runtime Dynamic = 0.000934088 W

              Local Predictor:
              L1_Local Predictor:
                Area = 0.0257064 mm^2
                Peak Dynamic = 0.0142575 W
                Subthreshold Leakage = 0.00273579 W
                Subthreshold Leakage with power gating = 0.00141387 W
                Gate Leakage = 0.000154548 W
                Runtime Dynamic = 0.00081665 W

              L2_Local Predictor:
                Area = 0.0151917 mm^2
                Peak Dynamic = 0.00527447 W
                Subthreshold Leakage = 0.00129084 W
                Subthreshold Leakage with power gating = 0.000681231 W
                Gate Leakage = 8.00196e-05 W
                Runtime Dynamic = 0.000317813 W

              Chooser:
                Area = 0.0435221 mm^2
                Peak Dynamic = 0.0168831 W
                Subthreshold Leakage = 0.00540773 W
                Subthreshold Leakage with power gating = 0.00279284 W
                Gate Leakage = 0.000278362 W
                Runtime Dynamic = 0.000934088 W

              RAS:
                Area = 0.0105732 mm^2
                Peak Dynamic = 0.0117602 W
                Subthreshold Leakage = 0.000663763 W
                Subthreshold Leakage with power gating = 0.000352154 W
                Gate Leakage = 4.63858e-05 W
                Runtime Dynamic = 0.000344234 W

          Instruction Buffer:
            Area = 0.0226323 mm^2
            Peak Dynamic = 0.606827 W
            Subthreshold Leakage = 0.00108112 W
            Subthreshold Leakage with power gating = 0.000499461 W
            Gate Leakage = 6.83558e-05 W
            Runtime Dynamic = 0.0230367 W

          Instruction Decoder:
            Area = 1.85799 mm^2
            Peak Dynamic = 1.37404 W
            Subthreshold Leakage = 0.31529 W
            Subthreshold Leakage with power gating = 0.118234 W
            Gate Leakage = 0.0222493 W
            Runtime Dynamic = 0.0782429 W

      Load Store Unit:
        Area = 8.05439 mm^2
        Peak Dynamic = 1.95186 W
        Subthreshold Leakage = 0.453895 W
        Subthreshold Leakage with power gating = 0.212713 W
        Gate Leakage = 0.0437459 W
        Runtime Dynamic = 0.370044 W

          Data Cache:
            Area = 6.84535 mm^2
            Peak Dynamic = 1.81553 W
            Subthreshold Leakage = 0.375602 W
            Subthreshold Leakage with power gating = 0.178556 W
            Gate Leakage = 0.0279261 W
            Runtime Dynamic = 0.277758 W

          Load/Store Queue:
            Area = 0.322079 mm^2
            Peak Dynamic = 0.0461429 W
            Subthreshold Leakage = 0.0246015 W
            Subthreshold Leakage with power gating = 0.0140229 W
            Gate Leakage = 0.00329971 W
            Runtime Dynamic = 0.0922861 W

      Memory Management Unit:
        Area = 0.559739 mm^2
        Peak Dynamic = 0.751379 W
        Subthreshold Leakage = 0.0942255 W
        Subthreshold Leakage with power gating = 0.0432387 W
        Gate Leakage = 0.0173421 W
        Runtime Dynamic = 0.0278786 W

          Itlb:
            Area = 0.301552 mm^2
            Peak Dynamic = 0.0911088 W
            Subthreshold Leakage = 0.0294516 W
            Subthreshold Leakage with power gating = 0.0167874 W
            Gate Leakage = 0.00393464 W
            Runtime Dynamic = 0.0115023 W

          Dtlb:
            Area = 0.0879726 mm^2
            Peak Dynamic = 0.0163763 W
            Subthreshold Leakage = 0.0110828 W
            Subthreshold Leakage with power gating = 0.00631717 W
            Gate Leakage = 0.00088729 W
            Runtime Dynamic = 0.0163763 W

      Execution Unit:
        Area = 6.14103 mm^2
        Peak Dynamic = 0.185881 W
        Subthreshold Leakage = 1.25199 W
        Subthreshold Leakage with power gating = 0.469807 W
        Gate Leakage = 0.12351 W
        Runtime Dynamic = 0.182186 W

          Register Files:
            Area = 0.570804 mm^2
            Peak Dynamic = 0.0234306 W
            Subthreshold Leakage = 0.00721681 W
            Subthreshold Leakage with power gating = 0.00301552 W
            Gate Leakage = 0.000622708 W
            Runtime Dynamic = 0.0272035 W

              Integer RF:
                Area = 0.362673 mm^2
                Peak Dynamic = 0.0234306 W
                Subthreshold Leakage = 0.00437174 W
                Subthreshold Leakage with power gating = 0.00175585 W
                Gate Leakage = 0.00038992 W
                Runtime Dynamic = 0.0239633 W

              Floating Point RF:
                Area = 0.208131 mm^2
                Peak Dynamic = 0 W
                Subthreshold Leakage = 0.00284507 W
                Subthreshold Leakage with power gating = 0.00125967 W
                Gate Leakage = 0.000232788 W
                Runtime Dynamic = 0.00324015 W

          Instruction Scheduler:
            Area = 0 mm^2
            Peak Dynamic = 0 W
            Subthreshold Leakage = 0 W
            Subthreshold Leakage with power gating = -nan W
            Gate Leakage = 0 W
            Runtime Dynamic = 0 W

          Integer ALUs (Count: 6 ):
            Area = 0.47087 mm^2
            Peak Dynamic = 0.0845035 W
            Subthreshold Leakage = 0.286303 W
            Subthreshold Leakage with power gating = 0.107364 W
            Gate Leakage = 0.0265291 W
            Runtime Dynamic = 0.0719777 W

          Floating Point Units (FPUs) (Count: 2 ):
            Area = 4.6585 mm^2
            Peak Dynamic = 0 W
            Subthreshold Leakage = 0.708126 W
            Subthreshold Leakage with power gating = 0.265547 W
            Gate Leakage = 0.0656156 W
            Runtime Dynamic = 0 W

          Complex ALUs (Mul/Div) (Count: 1 ):
            Area = 0.235435 mm^2
            Peak Dynamic = 0 W
            Subthreshold Leakage = 0.143151 W
            Subthreshold Leakage with power gating = 0.0536818 W
            Gate Leakage = 0.0132646 W
            Runtime Dynamic = 0 W

          Results Broadcast Bus:
            Area Overhead = 0.0352036 mm^2
            Peak Dynamic = 0.0324832 W
            Subthreshold Leakage = 0.0535057 W
            Subthreshold Leakage with power gating = 0.0200646 W
            Gate Leakage = 0.00495789 W
            Runtime Dynamic = 0.0830047 W

    L2
    Area = 4.53318 mm^2
    Peak Dynamic = 0 W
    Subthreshold Leakage = 0.593748 W
    Subthreshold Leakage with power gating = 0.285481 W
    Gate Leakage = 0.015464 W
    Runtime Dynamic = 3.74083e-06 W

*****************************************************************************************
Core:
      Area = 25.6888 mm^2
      Peak Dynamic = 6.83669 W
      Subthreshold Leakage = 3.22341 W
      Subthreshold Leakage with power gating = 1.36419 W
      Gate Leakage = 0.280015 W
      Runtime Dynamic = 0.760687 W

      Instruction Fetch Unit:
        Area = 5.98523 mm^2
        Peak Dynamic = 3.95111 W
        Subthreshold Leakage = 0.703301 W
        Subthreshold Leakage with power gating = 0.305608 W
        Gate Leakage = 0.0682541 W
        Runtime Dynamic = 0.182499 W

          Instruction Cache:
            Area = 3.14635 mm^2
            Peak Dynamic = 1.46068 W
            Subthreshold Leakage = 0.261248 W
            Subthreshold Leakage with power gating = 0.1284 W
            Gate Leakage = 0.029931 W
            Runtime Dynamic = 0.0697102 W

          Branch Target Buffer:
            Area = 0.64954 mm^2
            Peak Dynamic = 0.177867 W
            Subthreshold Leakage = 0.057776 W
            Subthreshold Leakage with power gating = 0.030989 W
            Gate Leakage = 0.00272758 W
            Runtime Dynamic = 0.0088143 W

          Branch Predictor:
            Area = 0.138516 mm^2
            Peak Dynamic = 0.0597838 W
            Subthreshold Leakage = 0.014215 W
            Subthreshold Leakage with power gating = 0.0073517 W
            Gate Leakage = 0.000757657 W
            Runtime Dynamic = 0.00301582 W

              Global Predictor:
                Area = 0.0435221 mm^2
                Peak Dynamic = 0.0168831 W
                Subthreshold Leakage = 0.00540773 W
                Subthreshold Leakage with power gating = 0.00279284 W
                Gate Leakage = 0.000278362 W
                Runtime Dynamic = 0.000929943 W

              Local Predictor:
              L1_Local Predictor:
                Area = 0.0257064 mm^2
                Peak Dynamic = 0.0142575 W
                Subthreshold Leakage = 0.00273579 W
                Subthreshold Leakage with power gating = 0.00141387 W
                Gate Leakage = 0.000154548 W
                Runtime Dynamic = 0.000812831 W

              L2_Local Predictor:
                Area = 0.0151917 mm^2
                Peak Dynamic = 0.00527447 W
                Subthreshold Leakage = 0.00129084 W
                Subthreshold Leakage with power gating = 0.000681231 W
                Gate Leakage = 8.00196e-05 W
                Runtime Dynamic = 0.00031622 W

              Chooser:
                Area = 0.0435221 mm^2
                Peak Dynamic = 0.0168831 W
                Subthreshold Leakage = 0.00540773 W
                Subthreshold Leakage with power gating = 0.00279284 W
                Gate Leakage = 0.000278362 W
                Runtime Dynamic = 0.000929943 W

              RAS:
                Area = 0.0105732 mm^2
                Peak Dynamic = 0.0117602 W
                Subthreshold Leakage = 0.000663763 W
                Subthreshold Leakage with power gating = 0.000352154 W
                Gate Leakage = 4.63858e-05 W
                Runtime Dynamic = 0.000343102 W

          Instruction Buffer:
            Area = 0.0226323 mm^2
            Peak Dynamic = 0.606827 W
            Subthreshold Leakage = 0.00108112 W
            Subthreshold Leakage with power gating = 0.000499461 W
            Gate Leakage = 6.83558e-05 W
            Runtime Dynamic = 0.0229636 W

          Instruction Decoder:
            Area = 1.85799 mm^2
            Peak Dynamic = 1.37404 W
            Subthreshold Leakage = 0.31529 W
            Subthreshold Leakage with power gating = 0.118234 W
            Gate Leakage = 0.0222493 W
            Runtime Dynamic = 0.0779946 W

      Load Store Unit:
        Area = 8.05439 mm^2
        Peak Dynamic = 1.94941 W
        Subthreshold Leakage = 0.453895 W
        Subthreshold Leakage with power gating = 0.212713 W
        Gate Leakage = 0.0437459 W
        Runtime Dynamic = 0.368775 W

          Data Cache:
            Area = 6.84535 mm^2
            Peak Dynamic = 1.81355 W
            Subthreshold Leakage = 0.375602 W
            Subthreshold Leakage with power gating = 0.178556 W
            Gate Leakage = 0.0279261 W
            Runtime Dynamic = 0.276805 W

          Load/Store Queue:
            Area = 0.322079 mm^2
            Peak Dynamic = 0.0459848 W
            Subthreshold Leakage = 0.0246015 W
            Subthreshold Leakage with power gating = 0.0140229 W
            Gate Leakage = 0.00329971 W
            Runtime Dynamic = 0.0919694 W

      Memory Management Unit:
        Area = 0.559739 mm^2
        Peak Dynamic = 0.75088 W
        Subthreshold Leakage = 0.0942255 W
        Subthreshold Leakage with power gating = 0.0432387 W
        Gate Leakage = 0.0173421 W
        Runtime Dynamic = 0.0277691 W

          Itlb:
            Area = 0.301552 mm^2
            Peak Dynamic = 0.0908196 W
            Subthreshold Leakage = 0.0294516 W
            Subthreshold Leakage with power gating = 0.0167874 W
            Gate Leakage = 0.00393464 W
            Runtime Dynamic = 0.011449 W

          Dtlb:
            Area = 0.0879726 mm^2
            Peak Dynamic = 0.0163202 W
            Subthreshold Leakage = 0.0110828 W
            Subthreshold Leakage with power gating = 0.00631717 W
            Gate Leakage = 0.00088729 W
            Runtime Dynamic = 0.0163201 W

      Execution Unit:
        Area = 6.14103 mm^2
        Peak Dynamic = 0.185293 W
        Subthreshold Leakage = 1.25199 W
        Subthreshold Leakage with power gating = 0.469807 W
        Gate Leakage = 0.12351 W
        Runtime Dynamic = 0.18164 W

          Register Files:
            Area = 0.570804 mm^2
            Peak Dynamic = 0.0233565 W
            Subthreshold Leakage = 0.00721681 W
            Subthreshold Leakage with power gating = 0.00301552 W
            Gate Leakage = 0.000622708 W
            Runtime Dynamic = 0.0271172 W

              Integer RF:
                Area = 0.362673 mm^2
                Peak Dynamic = 0.0233565 W
                Subthreshold Leakage = 0.00437174 W
                Subthreshold Leakage with power gating = 0.00175585 W
                Gate Leakage = 0.00038992 W
                Runtime Dynamic = 0.0238873 W

              Floating Point RF:
                Area = 0.208131 mm^2
                Peak Dynamic = 0 W
                Subthreshold Leakage = 0.00284507 W
                Subthreshold Leakage with power gating = 0.00125967 W
                Gate Leakage = 0.000232788 W
                Runtime Dynamic = 0.00322986 W

          Instruction Scheduler:
            Area = 0 mm^2
            Peak Dynamic = 0 W
            Subthreshold Leakage = 0 W
            Subthreshold Leakage with power gating = -nan W
            Gate Leakage = 0 W
            Runtime Dynamic = 0 W

          Integer ALUs (Count: 6 ):
            Area = 0.47087 mm^2
            Peak Dynamic = 0.0842364 W
            Subthreshold Leakage = 0.286303 W
            Subthreshold Leakage with power gating = 0.107364 W
            Gate Leakage = 0.0265291 W
            Runtime Dynamic = 0.0717645 W

          Floating Point Units (FPUs) (Count: 2 ):
            Area = 4.6585 mm^2
            Peak Dynamic = 0 W
            Subthreshold Leakage = 0.708126 W
            Subthreshold Leakage with power gating = 0.265547 W
            Gate Leakage = 0.0656156 W
            Runtime Dynamic = 0 W

          Complex ALUs (Mul/Div) (Count: 1 ):
            Area = 0.235435 mm^2
            Peak Dynamic = 0 W
            Subthreshold Leakage = 0.143151 W
            Subthreshold Leakage with power gating = 0.0536818 W
            Gate Leakage = 0.0132646 W
            Runtime Dynamic = 0 W

          Results Broadcast Bus:
            Area Overhead = 0.0352036 mm^2
            Peak Dynamic = 0.0323805 W
            Subthreshold Leakage = 0.0535057 W
            Subthreshold Leakage with power gating = 0.0200646 W
            Gate Leakage = 0.00495789 W
            Runtime Dynamic = 0.0827588 W

    L2
    Area = 4.53318 mm^2
    Peak Dynamic = 0 W
    Subthreshold Leakage = 0.593748 W
    Subthreshold Leakage with power gating = 0.285481 W
    Gate Leakage = 0.015464 W
    Runtime Dynamic = 3.74083e-06 W

*****************************************************************************************
Core:
      Area = 25.6888 mm^2
      Peak Dynamic = 6.83648 W
      Subthreshold Leakage = 3.22341 W
      Subthreshold Leakage with power gating = 1.36419 W
      Gate Leakage = 0.280015 W
      Runtime Dynamic = 0.760623 W

      Instruction Fetch Unit:
        Area = 5.98523 mm^2
        Peak Dynamic = 3.951 W
        Subthreshold Leakage = 0.703301 W
        Subthreshold Leakage with power gating = 0.305608 W
        Gate Leakage = 0.0682541 W
        Runtime Dynamic = 0.182486 W

          Instruction Cache:
            Area = 3.14635 mm^2
            Peak Dynamic = 1.46058 W
            Subthreshold Leakage = 0.261248 W
            Subthreshold Leakage with power gating = 0.1284 W
            Gate Leakage = 0.029931 W
            Runtime Dynamic = 0.0697057 W

          Branch Target Buffer:
            Area = 0.64954 mm^2
            Peak Dynamic = 0.177867 W
            Subthreshold Leakage = 0.057776 W
            Subthreshold Leakage with power gating = 0.030989 W
            Gate Leakage = 0.00272758 W
            Runtime Dynamic = 0.00881363 W

          Branch Predictor:
            Area = 0.138516 mm^2
            Peak Dynamic = 0.0597838 W
            Subthreshold Leakage = 0.014215 W
            Subthreshold Leakage with power gating = 0.0073517 W
            Gate Leakage = 0.000757657 W
            Runtime Dynamic = 0.00301562 W

              Global Predictor:
                Area = 0.0435221 mm^2
                Peak Dynamic = 0.0168831 W
                Subthreshold Leakage = 0.00540773 W
                Subthreshold Leakage with power gating = 0.00279284 W
                Gate Leakage = 0.000278362 W
                Runtime Dynamic = 0.000929875 W

              Local Predictor:
              L1_Local Predictor:
                Area = 0.0257064 mm^2
                Peak Dynamic = 0.0142575 W
                Subthreshold Leakage = 0.00273579 W
                Subthreshold Leakage with power gating = 0.00141387 W
                Gate Leakage = 0.000154548 W
                Runtime Dynamic = 0.000812772 W

              L2_Local Predictor:
                Area = 0.0151917 mm^2
                Peak Dynamic = 0.00527447 W
                Subthreshold Leakage = 0.00129084 W
                Subthreshold Leakage with power gating = 0.000681231 W
                Gate Leakage = 8.00196e-05 W
                Runtime Dynamic = 0.000316198 W

              Chooser:
                Area = 0.0435221 mm^2
                Peak Dynamic = 0.0168831 W
                Subthreshold Leakage = 0.00540773 W
                Subthreshold Leakage with power gating = 0.00279284 W
                Gate Leakage = 0.000278362 W
                Runtime Dynamic = 0.000929875 W

              RAS:
                Area = 0.0105732 mm^2
                Peak Dynamic = 0.0117602 W
                Subthreshold Leakage = 0.000663763 W
                Subthreshold Leakage with power gating = 0.000352154 W
                Gate Leakage = 4.63858e-05 W
                Runtime Dynamic = 0.000343102 W

          Instruction Buffer:
            Area = 0.0226323 mm^2
            Peak Dynamic = 0.606827 W
            Subthreshold Leakage = 0.00108112 W
            Subthreshold Leakage with power gating = 0.000499461 W
            Gate Leakage = 6.83558e-05 W
            Runtime Dynamic = 0.0229621 W

          Instruction Decoder:
            Area = 1.85799 mm^2
            Peak Dynamic = 1.37404 W
            Subthreshold Leakage = 0.31529 W
            Subthreshold Leakage with power gating = 0.118234 W
            Gate Leakage = 0.0222493 W
            Runtime Dynamic = 0.0779895 W

      Load Store Unit:
        Area = 8.05439 mm^2
        Peak Dynamic = 1.94933 W
        Subthreshold Leakage = 0.453895 W
        Subthreshold Leakage with power gating = 0.212713 W
        Gate Leakage = 0.0437459 W
        Runtime Dynamic = 0.368738 W

          Data Cache:
            Area = 6.84535 mm^2
            Peak Dynamic = 1.81349 W
            Subthreshold Leakage = 0.375602 W
            Subthreshold Leakage with power gating = 0.178556 W
            Gate Leakage = 0.0279261 W
            Runtime Dynamic = 0.276778 W

          Load/Store Queue:
            Area = 0.322079 mm^2
            Peak Dynamic = 0.0459799 W
            Subthreshold Leakage = 0.0246015 W
            Subthreshold Leakage with power gating = 0.0140229 W
            Gate Leakage = 0.00329971 W
            Runtime Dynamic = 0.0919603 W

      Memory Management Unit:
        Area = 0.559739 mm^2
        Peak Dynamic = 0.750867 W
        Subthreshold Leakage = 0.0942255 W
        Subthreshold Leakage with power gating = 0.0432387 W
        Gate Leakage = 0.0173421 W
        Runtime Dynamic = 0.0277668 W

          Itlb:
            Area = 0.301552 mm^2
            Peak Dynamic = 0.0908136 W
            Subthreshold Leakage = 0.0294516 W
            Subthreshold Leakage with power gating = 0.0167874 W
            Gate Leakage = 0.00393464 W
            Runtime Dynamic = 0.0114483 W

          Dtlb:
            Area = 0.0879726 mm^2
            Peak Dynamic = 0.0163184 W
            Subthreshold Leakage = 0.0110828 W
            Subthreshold Leakage with power gating = 0.00631717 W
            Gate Leakage = 0.00088729 W
            Runtime Dynamic = 0.0163185 W

      Execution Unit:
        Area = 6.14103 mm^2
        Peak Dynamic = 0.185283 W
        Subthreshold Leakage = 1.25199 W
        Subthreshold Leakage with power gating = 0.469807 W
        Gate Leakage = 0.12351 W
        Runtime Dynamic = 0.181628 W

          Register Files:
            Area = 0.570804 mm^2
            Peak Dynamic = 0.0233553 W
            Subthreshold Leakage = 0.00721681 W
            Subthreshold Leakage with power gating = 0.00301552 W
            Gate Leakage = 0.000622708 W
            Runtime Dynamic = 0.0271154 W

              Integer RF:
                Area = 0.362673 mm^2
                Peak Dynamic = 0.0233553 W
                Subthreshold Leakage = 0.00437174 W
                Subthreshold Leakage with power gating = 0.00175585 W
                Gate Leakage = 0.00038992 W
                Runtime Dynamic = 0.0238858 W

              Floating Point RF:
                Area = 0.208131 mm^2
                Peak Dynamic = 0 W
                Subthreshold Leakage = 0.00284507 W
                Subthreshold Leakage with power gating = 0.00125967 W
                Gate Leakage = 0.000232788 W
                Runtime Dynamic = 0.00322965 W

          Instruction Scheduler:
            Area = 0 mm^2
            Peak Dynamic = 0 W
            Subthreshold Leakage = 0 W
            Subthreshold Leakage with power gating = -nan W
            Gate Leakage = 0 W
            Runtime Dynamic = 0 W

          Integer ALUs (Count: 6 ):
            Area = 0.47087 mm^2
            Peak Dynamic = 0.084232 W
            Subthreshold Leakage = 0.286303 W
            Subthreshold Leakage with power gating = 0.107364 W
            Gate Leakage = 0.0265291 W
            Runtime Dynamic = 0.0717596 W

          Floating Point Units (FPUs) (Count: 2 ):
            Area = 4.6585 mm^2
            Peak Dynamic = 0 W
            Subthreshold Leakage = 0.708126 W
            Subthreshold Leakage with power gating = 0.265547 W
            Gate Leakage = 0.0656156 W
            Runtime Dynamic = 0 W

          Complex ALUs (Mul/Div) (Count: 1 ):
            Area = 0.235435 mm^2
            Peak Dynamic = 0 W
            Subthreshold Leakage = 0.143151 W
            Subthreshold Leakage with power gating = 0.0536818 W
            Gate Leakage = 0.0132646 W
            Runtime Dynamic = 0 W

          Results Broadcast Bus:
            Area Overhead = 0.0352036 mm^2
            Peak Dynamic = 0.0323788 W
            Subthreshold Leakage = 0.0535057 W
            Subthreshold Leakage with power gating = 0.0200646 W
            Gate Leakage = 0.00495789 W
            Runtime Dynamic = 0.0827532 W

    L2
    Area = 4.53318 mm^2
    Peak Dynamic = 0 W
    Subthreshold Leakage = 0.593748 W
    Subthreshold Leakage with power gating = 0.285481 W
    Gate Leakage = 0.015464 W
    Runtime Dynamic = 3.74083e-06 W

*****************************************************************************************
Core:
      Area = 25.6888 mm^2
      Peak Dynamic = 6.83669 W
      Subthreshold Leakage = 3.22341 W
      Subthreshold Leakage with power gating = 1.36419 W
      Gate Leakage = 0.280015 W
      Runtime Dynamic = 0.760678 W

      Instruction Fetch Unit:
        Area = 5.98523 mm^2
        Peak Dynamic = 3.95114 W
        Subthreshold Leakage = 0.703301 W
        Subthreshold Leakage with power gating = 0.305608 W
        Gate Leakage = 0.0682541 W
        Runtime Dynamic = 0.182505 W

          Instruction Cache:
            Area = 3.14635 mm^2
            Peak Dynamic = 1.4607 W
            Subthreshold Leakage = 0.261248 W
            Subthreshold Leakage with power gating = 0.1284 W
            Gate Leakage = 0.029931 W
            Runtime Dynamic = 0.0697148 W

          Branch Target Buffer:
            Area = 0.64954 mm^2
            Peak Dynamic = 0.177867 W
            Subthreshold Leakage = 0.057776 W
            Subthreshold Leakage with power gating = 0.030989 W
            Gate Leakage = 0.00272758 W
            Runtime Dynamic = 0.0088143 W

          Branch Predictor:
            Area = 0.138516 mm^2
            Peak Dynamic = 0.0597838 W
            Subthreshold Leakage = 0.014215 W
            Subthreshold Leakage with power gating = 0.0073517 W
            Gate Leakage = 0.000757657 W
            Runtime Dynamic = 0.00301582 W

              Global Predictor:
                Area = 0.0435221 mm^2
                Peak Dynamic = 0.0168831 W
                Subthreshold Leakage = 0.00540773 W
                Subthreshold Leakage with power gating = 0.00279284 W
                Gate Leakage = 0.000278362 W
                Runtime Dynamic = 0.000929943 W

              Local Predictor:
              L1_Local Predictor:
                Area = 0.0257064 mm^2
                Peak Dynamic = 0.0142575 W
                Subthreshold Leakage = 0.00273579 W
                Subthreshold Leakage with power gating = 0.00141387 W
                Gate Leakage = 0.000154548 W
                Runtime Dynamic = 0.000812831 W

              L2_Local Predictor:
                Area = 0.0151917 mm^2
                Peak Dynamic = 0.00527447 W
                Subthreshold Leakage = 0.00129084 W
                Subthreshold Leakage with power gating = 0.000681231 W
                Gate Leakage = 8.00196e-05 W
                Runtime Dynamic = 0.00031622 W

              Chooser:
                Area = 0.0435221 mm^2
                Peak Dynamic = 0.0168831 W
                Subthreshold Leakage = 0.00540773 W
                Subthreshold Leakage with power gating = 0.00279284 W
                Gate Leakage = 0.000278362 W
                Runtime Dynamic = 0.000929943 W

              RAS:
                Area = 0.0105732 mm^2
                Peak Dynamic = 0.0117602 W
                Subthreshold Leakage = 0.000663763 W
                Subthreshold Leakage with power gating = 0.000352154 W
                Gate Leakage = 4.63858e-05 W
                Runtime Dynamic = 0.000343102 W

          Instruction Buffer:
            Area = 0.0226323 mm^2
            Peak Dynamic = 0.606827 W
            Subthreshold Leakage = 0.00108112 W
            Subthreshold Leakage with power gating = 0.000499461 W
            Gate Leakage = 6.83558e-05 W
            Runtime Dynamic = 0.0229639 W

          Instruction Decoder:
            Area = 1.85799 mm^2
            Peak Dynamic = 1.37404 W
            Subthreshold Leakage = 0.31529 W
            Subthreshold Leakage with power gating = 0.118234 W
            Gate Leakage = 0.0222493 W
            Runtime Dynamic = 0.0779959 W

      Load Store Unit:
        Area = 8.05439 mm^2
        Peak Dynamic = 1.94937 W
        Subthreshold Leakage = 0.453895 W
        Subthreshold Leakage with power gating = 0.212713 W
        Gate Leakage = 0.0437459 W
        Runtime Dynamic = 0.368756 W

          Data Cache:
            Area = 6.84535 mm^2
            Peak Dynamic = 1.81352 W
            Subthreshold Leakage = 0.375602 W
            Subthreshold Leakage with power gating = 0.178556 W
            Gate Leakage = 0.0279261 W
            Runtime Dynamic = 0.276792 W

          Load/Store Queue:
            Area = 0.322079 mm^2
            Peak Dynamic = 0.0459824 W
            Subthreshold Leakage = 0.0246015 W
            Subthreshold Leakage with power gating = 0.0140229 W
            Gate Leakage = 0.00329971 W
            Runtime Dynamic = 0.0919648 W

      Memory Management Unit:
        Area = 0.559739 mm^2
        Peak Dynamic = 0.750878 W
        Subthreshold Leakage = 0.0942255 W
        Subthreshold Leakage with power gating = 0.0432387 W
        Gate Leakage = 0.0173421 W
        Runtime Dynamic = 0.0277691 W

          Itlb:
            Area = 0.301552 mm^2
            Peak Dynamic = 0.0908212 W
            Subthreshold Leakage = 0.0294516 W
            Subthreshold Leakage with power gating = 0.0167874 W
            Gate Leakage = 0.00393464 W
            Runtime Dynamic = 0.0114498 W

          Dtlb:
            Area = 0.0879726 mm^2
            Peak Dynamic = 0.0163193 W
            Subthreshold Leakage = 0.0110828 W
            Subthreshold Leakage with power gating = 0.00631717 W
            Gate Leakage = 0.00088729 W
            Runtime Dynamic = 0.0163193 W

      Execution Unit:
        Area = 6.14103 mm^2
        Peak Dynamic = 0.185298 W
        Subthreshold Leakage = 1.25199 W
        Subthreshold Leakage with power gating = 0.469807 W
        Gate Leakage = 0.12351 W
        Runtime Dynamic = 0.181644 W

          Register Files:
            Area = 0.570804 mm^2
            Peak Dynamic = 0.0233572 W
            Subthreshold Leakage = 0.00721681 W
            Subthreshold Leakage with power gating = 0.00301552 W
            Gate Leakage = 0.000622708 W
            Runtime Dynamic = 0.0271176 W

              Integer RF:
                Area = 0.362673 mm^2
                Peak Dynamic = 0.0233572 W
                Subthreshold Leakage = 0.00437174 W
                Subthreshold Leakage with power gating = 0.00175585 W
                Gate Leakage = 0.00038992 W
                Runtime Dynamic = 0.0238877 W

              Floating Point RF:
                Area = 0.208131 mm^2
                Peak Dynamic = 0 W
                Subthreshold Leakage = 0.00284507 W
                Subthreshold Leakage with power gating = 0.00125967 W
                Gate Leakage = 0.000232788 W
                Runtime Dynamic = 0.00322993 W

          Instruction Scheduler:
            Area = 0 mm^2
            Peak Dynamic = 0 W
            Subthreshold Leakage = 0 W
            Subthreshold Leakage with power gating = -nan W
            Gate Leakage = 0 W
            Runtime Dynamic = 0 W

          Integer ALUs (Count: 6 ):
            Area = 0.47087 mm^2
            Peak Dynamic = 0.0842387 W
            Subthreshold Leakage = 0.286303 W
            Subthreshold Leakage with power gating = 0.107364 W
            Gate Leakage = 0.0265291 W
            Runtime Dynamic = 0.0717659 W

          Floating Point Units (FPUs) (Count: 2 ):
            Area = 4.6585 mm^2
            Peak Dynamic = 0 W
            Subthreshold Leakage = 0.708126 W
            Subthreshold Leakage with power gating = 0.265547 W
            Gate Leakage = 0.0656156 W
            Runtime Dynamic = 0 W

          Complex ALUs (Mul/Div) (Count: 1 ):
            Area = 0.235435 mm^2
            Peak Dynamic = 0 W
            Subthreshold Leakage = 0.143151 W
            Subthreshold Leakage with power gating = 0.0536818 W
            Gate Leakage = 0.0132646 W
            Runtime Dynamic = 0 W

          Results Broadcast Bus:
            Area Overhead = 0.0352036 mm^2
            Peak Dynamic = 0.0323814 W
            Subthreshold Leakage = 0.0535057 W
            Subthreshold Leakage with power gating = 0.0200646 W
            Gate Leakage = 0.00495789 W
            Runtime Dynamic = 0.0827604 W

    L2
    Area = 4.53318 mm^2
    Peak Dynamic = 0 W
    Subthreshold Leakage = 0.593748 W
    Subthreshold Leakage with power gating = 0.285481 W
    Gate Leakage = 0.015464 W
    Runtime Dynamic = 3.74083e-06 W

*****************************************************************************************
Core:
      Area = 25.6888 mm^2
      Peak Dynamic = 6.83492 W
      Subthreshold Leakage = 3.22341 W
      Subthreshold Leakage with power gating = 1.36419 W
      Gate Leakage = 0.280015 W
      Runtime Dynamic = 0.760116 W

      Instruction Fetch Unit:
        Area = 5.98523 mm^2
        Peak Dynamic = 3.95017 W
        Subthreshold Leakage = 0.703301 W
        Subthreshold Leakage with power gating = 0.305608 W
        Gate Leakage = 0.0682541 W
        Runtime Dynamic = 0.18238 W

          Instruction Cache:
            Area = 3.14635 mm^2
            Peak Dynamic = 1.45989 W
            Subthreshold Leakage = 0.261248 W
            Subthreshold Leakage with power gating = 0.1284 W
            Gate Leakage = 0.029931 W
            Runtime Dynamic = 0.0696554 W

          Branch Target Buffer:
            Area = 0.64954 mm^2
            Peak Dynamic = 0.177867 W
            Subthreshold Leakage = 0.057776 W
            Subthreshold Leakage with power gating = 0.030989 W
            Gate Leakage = 0.00272758 W
            Runtime Dynamic = 0.0088083 W

          Branch Predictor:
            Area = 0.138516 mm^2
            Peak Dynamic = 0.0597838 W
            Subthreshold Leakage = 0.014215 W
            Subthreshold Leakage with power gating = 0.0073517 W
            Gate Leakage = 0.000757657 W
            Runtime Dynamic = 0.00301355 W

              Global Predictor:
                Area = 0.0435221 mm^2
                Peak Dynamic = 0.0168831 W
                Subthreshold Leakage = 0.00540773 W
                Subthreshold Leakage with power gating = 0.00279284 W
                Gate Leakage = 0.000278362 W
                Runtime Dynamic = 0.00092922 W

              Local Predictor:
              L1_Local Predictor:
                Area = 0.0257064 mm^2
                Peak Dynamic = 0.0142575 W
                Subthreshold Leakage = 0.00273579 W
                Subthreshold Leakage with power gating = 0.00141387 W
                Gate Leakage = 0.000154548 W
                Runtime Dynamic = 0.000812175 W

              L2_Local Predictor:
                Area = 0.0151917 mm^2
                Peak Dynamic = 0.00527447 W
                Subthreshold Leakage = 0.00129084 W
                Subthreshold Leakage with power gating = 0.000681231 W
                Gate Leakage = 8.00196e-05 W
                Runtime Dynamic = 0.000315952 W

              Chooser:
                Area = 0.0435221 mm^2
                Peak Dynamic = 0.0168831 W
                Subthreshold Leakage = 0.00540773 W
                Subthreshold Leakage with power gating = 0.00279284 W
                Gate Leakage = 0.000278362 W
                Runtime Dynamic = 0.00092922 W

              RAS:
                Area = 0.0105732 mm^2
                Peak Dynamic = 0.0117602 W
                Subthreshold Leakage = 0.000663763 W
                Subthreshold Leakage with power gating = 0.000352154 W
                Gate Leakage = 4.63858e-05 W
                Runtime Dynamic = 0.000342932 W

          Instruction Buffer:
            Area = 0.0226323 mm^2
            Peak Dynamic = 0.606827 W
            Subthreshold Leakage = 0.00108112 W
            Subthreshold Leakage with power gating = 0.000499461 W
            Gate Leakage = 6.83558e-05 W
            Runtime Dynamic = 0.0229511 W

          Instruction Decoder:
            Area = 1.85799 mm^2
            Peak Dynamic = 1.37404 W
            Subthreshold Leakage = 0.31529 W
            Subthreshold Leakage with power gating = 0.118234 W
            Gate Leakage = 0.0222493 W
            Runtime Dynamic = 0.0779522 W

      Load Store Unit:
        Area = 8.05439 mm^2
        Peak Dynamic = 1.94878 W
        Subthreshold Leakage = 0.453895 W
        Subthreshold Leakage with power gating = 0.212713 W
        Gate Leakage = 0.0437459 W
        Runtime Dynamic = 0.368453 W

          Data Cache:
            Area = 6.84535 mm^2
            Peak Dynamic = 1.81304 W
            Subthreshold Leakage = 0.375602 W
            Subthreshold Leakage with power gating = 0.178556 W
[...]
            Subthreshold Leakage = 0 W
            Subthreshold Leakage with power gating = -nan W
            Gate Leakage = 0 W
            Runtime Dynamic = 0 W

          Integer ALUs (Count: 6 ):
            Area = 0.47087 mm^2
            Peak Dynamic = 0.0840583 W
            Subthreshold Leakage = 0.286303 W
            Subthreshold Leakage with power gating = 0.107364 W
            Gate Leakage = 0.0265291 W
            Runtime Dynamic = 0.0716082 W

          Floating Point Units (FPUs) (Count: 2 ):
            Area = 4.6585 mm^2
            Peak Dynamic = 0 W
            Subthreshold Leakage = 0.708126 W
            Subthreshold Leakage with power gating = 0.265547 W
            Gate Leakage = 0.0656156 W
            Runtime Dynamic = 0 W

          Complex ALUs (Mul/Div) (Count: 1 ):
            Area = 0.235435 mm^2
            Peak Dynamic = 0 W
            Subthreshold Leakage = 0.143151 W
            Subthreshold Leakage with power gating = 0.0536818 W
            Gate Leakage = 0.0132646 W
            Runtime Dynamic = 0 W

          Results Broadcast Bus:
            Area Overhead = 0.0352036 mm^2
            Peak Dynamic = 0.032312 W
            Subthreshold Leakage = 0.0535057 W
            Subthreshold Leakage with power gating = 0.0200646 W
            Gate Leakage = 0.00495789 W
            Runtime Dynamic = 0.0825786 W

    L2
    Area = 4.53318 mm^2
    Peak Dynamic = 0 W
    Subthreshold Leakage = 0.593748 W
    Subthreshold Leakage with power gating = 0.285481 W
    Gate Leakage = 0.015464 W
    Runtime Dynamic = 3.74083e-06 W

*****************************************************************************************
Core:
      Area = 25.6888 mm^2
      Peak Dynamic = 6.83019 W
      Subthreshold Leakage = 3.22341 W
      Subthreshold Leakage with power gating = 1.36419 W
      Gate Leakage = 0.280015 W
      Runtime Dynamic = 0.758675 W

      Instruction Fetch Unit:
        Area = 5.98523 mm^2
        Peak Dynamic = 3.94747 W
        Subthreshold Leakage = 0.703301 W
        Subthreshold Leakage with power gating = 0.305608 W
        Gate Leakage = 0.0682541 W
        Runtime Dynamic = 0.182048 W

          Instruction Cache:
            Area = 3.14635 mm^2
            Peak Dynamic = 1.45761 W
            Subthreshold Leakage = 0.261248 W
            Subthreshold Leakage with power gating = 0.1284 W
            Gate Leakage = 0.029931 W
            Runtime Dynamic = 0.0695001 W

          Branch Target Buffer:
            Area = 0.64954 mm^2
            Peak Dynamic = 0.177867 W
            Subthreshold Leakage = 0.057776 W
            Subthreshold Leakage with power gating = 0.030989 W
            Gate Leakage = 0.00272758 W
            Runtime Dynamic = 0.00879398 W

          Branch Predictor:
            Area = 0.138516 mm^2
            Peak Dynamic = 0.0597838 W
            Subthreshold Leakage = 0.014215 W
            Subthreshold Leakage with power gating = 0.0073517 W
            Gate Leakage = 0.000757657 W
            Runtime Dynamic = 0.00300844 W

              Global Predictor:
                Area = 0.0435221 mm^2
                Peak Dynamic = 0.0168831 W
                Subthreshold Leakage = 0.00540773 W
                Subthreshold Leakage with power gating = 0.00279284 W
                Gate Leakage = 0.000278362 W
                Runtime Dynamic = 0.000927627 W

              Local Predictor:
              L1_Local Predictor:
                Area = 0.0257064 mm^2
                Peak Dynamic = 0.0142575 W
                Subthreshold Leakage = 0.00273579 W
                Subthreshold Leakage with power gating = 0.00141387 W
                Gate Leakage = 0.000154548 W
                Runtime Dynamic = 0.000810762 W

              L2_Local Predictor:
                Area = 0.0151917 mm^2
                Peak Dynamic = 0.00527447 W
                Subthreshold Leakage = 0.00129084 W
                Subthreshold Leakage with power gating = 0.000681231 W
                Gate Leakage = 8.00196e-05 W
                Runtime Dynamic = 0.00031539 W

              Chooser:
                Area = 0.0435221 mm^2
                Peak Dynamic = 0.0168831 W
                Subthreshold Leakage = 0.00540773 W
                Subthreshold Leakage with power gating = 0.00279284 W
                Gate Leakage = 0.000278362 W
                Runtime Dynamic = 0.000927627 W

              RAS:
                Area = 0.0105732 mm^2
                Peak Dynamic = 0.0117602 W
                Subthreshold Leakage = 0.000663763 W
                Subthreshold Leakage with power gating = 0.000352154 W
                Gate Leakage = 4.63858e-05 W
                Runtime Dynamic = 0.000342423 W

          Instruction Buffer:
            Area = 0.0226323 mm^2
            Peak Dynamic = 0.606827 W
            Subthreshold Leakage = 0.00108112 W
            Subthreshold Leakage with power gating = 0.000499461 W
            Gate Leakage = 6.83558e-05 W
            Runtime Dynamic = 0.0229153 W

          Instruction Decoder:
            Area = 1.85799 mm^2
            Peak Dynamic = 1.37404 W
            Subthreshold Leakage = 0.31529 W
            Subthreshold Leakage with power gating = 0.118234 W
            Gate Leakage = 0.0222493 W
            Runtime Dynamic = 0.0778306 W

      Load Store Unit:
        Area = 8.05439 mm^2
        Peak Dynamic = 1.94731 W
        Subthreshold Leakage = 0.453895 W
        Subthreshold Leakage with power gating = 0.212713 W
        Gate Leakage = 0.0437459 W
        Runtime Dynamic = 0.367689 W

          Data Cache:
            Area = 6.84535 mm^2
            Peak Dynamic = 1.81185 W
            Subthreshold Leakage = 0.375602 W
            Subthreshold Leakage with power gating = 0.178556 W
            Gate Leakage = 0.0279261 W
            Runtime Dynamic = 0.275991 W

          Load/Store Queue:
            Area = 0.322079 mm^2
            Peak Dynamic = 0.0458494 W
            Subthreshold Leakage = 0.0246015 W
            Subthreshold Leakage with power gating = 0.0140229 W
            Gate Leakage = 0.00329971 W
            Runtime Dynamic = 0.0916987 W

      Memory Management Unit:
        Area = 0.559739 mm^2
        Peak Dynamic = 0.750508 W
        Subthreshold Leakage = 0.0942255 W
        Subthreshold Leakage with power gating = 0.0432387 W
        Gate Leakage = 0.0173421 W
        Runtime Dynamic = 0.0276862 W

          Itlb:
            Area = 0.301552 mm^2
            Peak Dynamic = 0.0906288 W
            Subthreshold Leakage = 0.0294516 W
            Subthreshold Leakage with power gating = 0.0167874 W
            Gate Leakage = 0.00393464 W
            Runtime Dynamic = 0.0114141 W

          Dtlb:
            Area = 0.0879726 mm^2
            Peak Dynamic = 0.0162721 W
            Subthreshold Leakage = 0.0110828 W
            Subthreshold Leakage with power gating = 0.00631717 W
            Gate Leakage = 0.00088729 W
            Runtime Dynamic = 0.0162721 W

      Execution Unit:
        Area = 6.14103 mm^2
        Peak Dynamic = 0.184902 W
        Subthreshold Leakage = 1.25199 W
        Subthreshold Leakage with power gating = 0.469807 W
        Gate Leakage = 0.12351 W
        Runtime Dynamic = 0.181247 W

          Register Files:
            Area = 0.570804 mm^2
            Peak Dynamic = 0.0233072 W
            Subthreshold Leakage = 0.00721681 W
            Subthreshold Leakage with power gating = 0.00301552 W
            Gate Leakage = 0.000622708 W
            Runtime Dynamic = 0.0270603 W

              Integer RF:
                Area = 0.362673 mm^2
                Peak Dynamic = 0.0233072 W
                Subthreshold Leakage = 0.00437174 W
                Subthreshold Leakage with power gating = 0.00175585 W
                Gate Leakage = 0.00038992 W
                Runtime Dynamic = 0.0238372 W

              Floating Point RF:
                Area = 0.208131 mm^2
                Peak Dynamic = 0 W
                Subthreshold Leakage = 0.00284507 W
                Subthreshold Leakage with power gating = 0.00125967 W
                Gate Leakage = 0.000232788 W
                Runtime Dynamic = 0.00322311 W

          Instruction Scheduler:
            Area = 0 mm^2
            Peak Dynamic = 0 W
            Subthreshold Leakage = 0 W
            Subthreshold Leakage with power gating = -nan W
            Gate Leakage = 0 W
            Runtime Dynamic = 0 W

          Integer ALUs (Count: 6 ):
            Area = 0.47087 mm^2
            Peak Dynamic = 0.0840583 W
            Subthreshold Leakage = 0.286303 W
            Subthreshold Leakage with power gating = 0.107364 W
            Gate Leakage = 0.0265291 W
            Runtime Dynamic = 0.0716082 W

          Floating Point Units (FPUs) (Count: 2 ):
            Area = 4.6585 mm^2
            Peak Dynamic = 0 W
            Subthreshold Leakage = 0.708126 W
            Subthreshold Leakage with power gating = 0.265547 W
            Gate Leakage = 0.0656156 W
            Runtime Dynamic = 0 W

          Complex ALUs (Mul/Div) (Count: 1 ):
            Area = 0.235435 mm^2
            Peak Dynamic = 0 W
            Subthreshold Leakage = 0.143151 W
            Subthreshold Leakage with power gating = 0.0536818 W
            Gate Leakage = 0.0132646 W
            Runtime Dynamic = 0 W

          Results Broadcast Bus:
            Area Overhead = 0.0352036 mm^2
            Peak Dynamic = 0.032312 W
            Subthreshold Leakage = 0.0535057 W
            Subthreshold Leakage with power gating = 0.0200646 W
            Gate Leakage = 0.00495789 W
            Runtime Dynamic = 0.0825786 W

    L2
    Area = 4.53318 mm^2
    Peak Dynamic = 0 W
    Subthreshold Leakage = 0.593748 W
    Subthreshold Leakage with power gating = 0.285481 W
    Gate Leakage = 0.015464 W
    Runtime Dynamic = 3.74083e-06 W

*****************************************************************************************
Core:
      Area = 25.6888 mm^2
      Peak Dynamic = 6.8298 W
      Subthreshold Leakage = 3.22341 W
      Subthreshold Leakage with power gating = 1.36419 W
      Gate Leakage = 0.280015 W
      Runtime Dynamic = 0.758575 W

      Instruction Fetch Unit:
        Area = 5.98523 mm^2
        Peak Dynamic = 3.9472 W
        Subthreshold Leakage = 0.703301 W
        Subthreshold Leakage with power gating = 0.305608 W
        Gate Leakage = 0.0682541 W
        Runtime Dynamic = 0.182017 W

          Instruction Cache:
            Area = 3.14635 mm^2
            Peak Dynamic = 1.45738 W
            Subthreshold Leakage = 0.261248 W
            Subthreshold Leakage with power gating = 0.1284 W
            Gate Leakage = 0.029931 W
            Runtime Dynamic = 0.0694864 W

          Branch Target Buffer:
            Area = 0.64954 mm^2
            Peak Dynamic = 0.177867 W
            Subthreshold Leakage = 0.057776 W
            Subthreshold Leakage with power gating = 0.030989 W
            Gate Leakage = 0.00272758 W
            Runtime Dynamic = 0.00879232 W

          Branch Predictor:
            Area = 0.138516 mm^2
            Peak Dynamic = 0.0597838 W
            Subthreshold Leakage = 0.014215 W
            Subthreshold Leakage with power gating = 0.0073517 W
            Gate Leakage = 0.000757657 W
            Runtime Dynamic = 0.00300783 W

              Global Predictor:
                Area = 0.0435221 mm^2
                Peak Dynamic = 0.0168831 W
                Subthreshold Leakage = 0.00540773 W
                Subthreshold Leakage with power gating = 0.00279284 W
                Gate Leakage = 0.000278362 W
                Runtime Dynamic = 0.000927435 W

              Local Predictor:
              L1_Local Predictor:
                Area = 0.0257064 mm^2
                Peak Dynamic = 0.0142575 W
                Subthreshold Leakage = 0.00273579 W
                Subthreshold Leakage with power gating = 0.00141387 W
                Gate Leakage = 0.000154548 W
                Runtime Dynamic = 0.00081059 W

              L2_Local Predictor:
                Area = 0.0151917 mm^2
                Peak Dynamic = 0.00527447 W
                Subthreshold Leakage = 0.00129084 W
                Subthreshold Leakage with power gating = 0.000681231 W
                Gate Leakage = 8.00196e-05 W
                Runtime Dynamic = 0.000315321 W

              Chooser:
                Area = 0.0435221 mm^2
                Peak Dynamic = 0.0168831 W
                Subthreshold Leakage = 0.00540773 W
                Subthreshold Leakage with power gating = 0.00279284 W
                Gate Leakage = 0.000278362 W
                Runtime Dynamic = 0.000927435 W

              RAS:
                Area = 0.0105732 mm^2
                Peak Dynamic = 0.0117602 W
                Subthreshold Leakage = 0.000663763 W
                Subthreshold Leakage with power gating = 0.000352154 W
                Gate Leakage = 4.63858e-05 W
                Runtime Dynamic = 0.000342366 W

          Instruction Buffer:
            Area = 0.0226323 mm^2
            Peak Dynamic = 0.606827 W
            Subthreshold Leakage = 0.00108112 W
            Subthreshold Leakage with power gating = 0.000499461 W
            Gate Leakage = 6.83558e-05 W
            Runtime Dynamic = 0.0229117 W

          Instruction Decoder:
            Area = 1.85799 mm^2
            Peak Dynamic = 1.37404 W
            Subthreshold Leakage = 0.31529 W
            Subthreshold Leakage with power gating = 0.118234 W
            Gate Leakage = 0.0222493 W
            Runtime Dynamic = 0.0778184 W

      Load Store Unit:
        Area = 8.05439 mm^2
        Peak Dynamic = 1.94723 W
        Subthreshold Leakage = 0.453895 W
        Subthreshold Leakage with power gating = 0.212713 W
        Gate Leakage = 0.0437459 W
        Runtime Dynamic = 0.367652 W

          Data Cache:
            Area = 6.84535 mm^2
            Peak Dynamic = 1.81179 W
            Subthreshold Leakage = 0.375602 W
            Subthreshold Leakage with power gating = 0.178556 W
            Gate Leakage = 0.0279261 W
            Runtime Dynamic = 0.275963 W

          Load/Store Queue:
            Area = 0.322079 mm^2
            Peak Dynamic = 0.0458445 W
            Subthreshold Leakage = 0.0246015 W
            Subthreshold Leakage with power gating = 0.0140229 W
            Gate Leakage = 0.00329971 W
            Runtime Dynamic = 0.0916895 W

      Memory Management Unit:
        Area = 0.559739 mm^2
        Peak Dynamic = 0.750487 W
        Subthreshold Leakage = 0.0942255 W
        Subthreshold Leakage with power gating = 0.0432387 W
        Gate Leakage = 0.0173421 W
        Runtime Dynamic = 0.0276824 W

          Itlb:
            Area = 0.301552 mm^2
            Peak Dynamic = 0.0906144 W
            Subthreshold Leakage = 0.0294516 W
            Subthreshold Leakage with power gating = 0.0167874 W
            Gate Leakage = 0.00393464 W
            Runtime Dynamic = 0.0114119 W

          Dtlb:
            Area = 0.0879726 mm^2
            Peak Dynamic = 0.0162704 W
            Subthreshold Leakage = 0.0110828 W
            Subthreshold Leakage with power gating = 0.00631717 W
            Gate Leakage = 0.00088729 W
            Runtime Dynamic = 0.0162705 W

      Execution Unit:
        Area = 6.14103 mm^2
        Peak Dynamic = 0.184877 W
        Subthreshold Leakage = 1.25199 W
        Subthreshold Leakage with power gating = 0.469807 W
        Gate Leakage = 0.12351 W
        Runtime Dynamic = 0.18122 W

          Register Files:
            Area = 0.570804 mm^2
            Peak Dynamic = 0.0233041 W
            Subthreshold Leakage = 0.00721681 W
            Subthreshold Leakage with power gating = 0.00301552 W
            Gate Leakage = 0.000622708 W
            Runtime Dynamic = 0.0270559 W

              Integer RF:
                Area = 0.362673 mm^2
                Peak Dynamic = 0.0233041 W
                Subthreshold Leakage = 0.00437174 W
                Subthreshold Leakage with power gating = 0.00175585 W
                Gate Leakage = 0.00038992 W
                Runtime Dynamic = 0.0238333 W

              Floating Point RF:
                Area = 0.208131 mm^2
                Peak Dynamic = 0 W
                Subthreshold Leakage = 0.00284507 W
                Subthreshold Leakage with power gating = 0.00125967 W
                Gate Leakage = 0.000232788 W
                Runtime Dynamic = 0.00322262 W

          Instruction Scheduler:
            Area = 0 mm^2
            Peak Dynamic = 0 W
            Subthreshold Leakage = 0 W
            Subthreshold Leakage with power gating = -nan W
            Gate Leakage = 0 W
            Runtime Dynamic = 0 W

          Integer ALUs (Count: 6 ):
            Area = 0.47087 mm^2
            Peak Dynamic = 0.0840472 W
            Subthreshold Leakage = 0.286303 W
            Subthreshold Leakage with power gating = 0.107364 W
            Gate Leakage = 0.0265291 W
            Runtime Dynamic = 0.0715978 W

          Floating Point Units (FPUs) (Count: 2 ):
            Area = 4.6585 mm^2
            Peak Dynamic = 0 W
            Subthreshold Leakage = 0.708126 W
            Subthreshold Leakage with power gating = 0.265547 W
            Gate Leakage = 0.0656156 W
            Runtime Dynamic = 0 W

          Complex ALUs (Mul/Div) (Count: 1 ):
            Area = 0.235435 mm^2
            Peak Dynamic = 0 W
            Subthreshold Leakage = 0.143151 W
            Subthreshold Leakage with power gating = 0.0536818 W
            Gate Leakage = 0.0132646 W
            Runtime Dynamic = 0 W

          Results Broadcast Bus:
            Area Overhead = 0.0352036 mm^2
            Peak Dynamic = 0.0323078 W
            Subthreshold Leakage = 0.0535057 W
            Subthreshold Leakage with power gating = 0.0200646 W
            Gate Leakage = 0.00495789 W
            Runtime Dynamic = 0.0825666 W

    L2
    Area = 4.53318 mm^2
    Peak Dynamic = 0 W
    Subthreshold Leakage = 0.593748 W
    Subthreshold Leakage with power gating = 0.285481 W
    Gate Leakage = 0.015464 W
    Runtime Dynamic = 3.74083e-06 W

*****************************************************************************************
      L3
      Area = 61.9075 mm^2
      Peak Dynamic = 0 W
      Subthreshold Leakage = 6.80085 W
      Subthreshold Leakage with power gating = 3.32364 W
      Gate Leakage = 0.0484137 W
      Runtime Dynamic = 3.75231e-06 W

*****************************************************************************************
      L3
      Area = 61.9075 mm^2
      Peak Dynamic = 0 W
      Subthreshold Leakage = 6.80085 W
      Subthreshold Leakage with power gating = 3.32364 W
      Gate Leakage = 0.0484137 W
      Runtime Dynamic = 3.75231e-06 W

*****************************************************************************************
      L3
      Area = 61.9075 mm^2
      Peak Dynamic = 0 W
      Subthreshold Leakage = 6.80085 W
      Subthreshold Leakage with power gating = 3.32364 W
      Gate Leakage = 0.0484137 W
      Runtime Dynamic = 3.75231e-06 W

*****************************************************************************************
      L3
      Area = 61.9075 mm^2
      Peak Dynamic = 0 W
      Subthreshold Leakage = 6.80085 W
      Subthreshold Leakage with power gating = 3.32364 W
      Gate Leakage = 0.0484137 W
      Runtime Dynamic = 3.75231e-06 W

*****************************************************************************************
BUSES
      Area = 4.75126 mm^2
      Peak Dynamic = 0 W
      Subthreshold Leakage = 0.132917 W
      Subthreshold Leakage with power gating = 0.0498438 W
      Gate Leakage = 0.0127463 W
      Runtime Dynamic = 0 W

      Bus: 
        Area = 4.75126 mm^2
        Peak Dynamic = 0 W
        Subthreshold Leakage = 0.132917 W
        Subthreshold Leakage with power gating = 0.0498438 W
        Gate Leakage = 0.0127463 W
        Runtime Dynamic = 0 W

*****************************************************************************************
