McPAT (version 1.0 of Aug, 2013) is computing the target processor...
 

McPAT (version 1.0 of Aug, 2013) results  (current print level is 5)
*****************************************************************************************
  Technology 45 nm
  Using Long Channel Devices When Appropriate
  Interconnect metal projection= aggressive interconnect technology projection
  Core clock Rate(MHz) 2660

*****************************************************************************************
Processor: 
  Area = 611.928 mm^2
  Peak Power = 160.86 W
  Total Leakage = 76.5877 W
  Peak Dynamic = 84.2721 W
  Subthreshold Leakage = 72.4614 W
  Subthreshold Leakage with power gating = 32.9185 W
  Gate Leakage = 4.12635 W
  Runtime Dynamic = 4.41262 W

  Total Cores: 14 cores 
  Device Type= ITRS high performance device type
    Area = 359.644 mm^2
    Peak Dynamic = 84.2721 W
    Subthreshold Leakage = 45.1278 W
    Subthreshold Leakage with power gating = 19.0987 W
    Gate Leakage = 3.92021 W
    Runtime Dynamic = 4.41262 W

  Total L3s: 
  Device Type= ITRS high performance device type
    Area = 247.63 mm^2
    Peak Dynamic = 0 W
    Subthreshold Leakage = 27.2034 W
    Subthreshold Leakage with power gating = 13.2946 W
    Gate Leakage = 0.193655 W
    Runtime Dynamic = 2.85805e-08 W

  Total NoCs (Network/Bus): 
  Device Type= ITRS high performance device type
    Area = 4.65384 mm^2
    Peak Dynamic = 0 W
    Subthreshold Leakage = 0.130192 W
    Subthreshold Leakage with power gating = 0.0488219 W
    Gate Leakage = 0.0124849 W
    Runtime Dynamic = 0 W

*****************************************************************************************
Core:
      Area = 25.6888 mm^2
      Peak Dynamic = 6.01943 W
      Subthreshold Leakage = 3.22341 W
      Subthreshold Leakage with power gating = 1.36419 W
      Gate Leakage = 0.280015 W
      Runtime Dynamic = 0.315185 W

      Instruction Fetch Unit:
        Area = 5.98523 mm^2
        Peak Dynamic = 3.85408 W
        Subthreshold Leakage = 0.703301 W
        Subthreshold Leakage with power gating = 0.305608 W
        Gate Leakage = 0.0682541 W
        Runtime Dynamic = 0.103971 W

          Instruction Cache:
            Area = 3.14635 mm^2
            Peak Dynamic = 1.37887 W
            Subthreshold Leakage = 0.261248 W
            Subthreshold Leakage with power gating = 0.1284 W
            Gate Leakage = 0.029931 W
            Runtime Dynamic = 0.000132751 W

          Branch Target Buffer:
            Area = 0.64954 mm^2
            Peak Dynamic = 0.177867 W
            Subthreshold Leakage = 0.057776 W
            Subthreshold Leakage with power gating = 0.030989 W
            Gate Leakage = 0.00272758 W
            Runtime Dynamic = 0.00635784 W

          Branch Predictor:
            Area = 0.138516 mm^2
            Peak Dynamic = 0.0597838 W
            Subthreshold Leakage = 0.014215 W
            Subthreshold Leakage with power gating = 0.0073517 W
            Gate Leakage = 0.000757657 W
            Runtime Dynamic = 0.00217635 W

              Global Predictor:
                Area = 0.0435221 mm^2
                Peak Dynamic = 0.0168831 W
                Subthreshold Leakage = 0.00540773 W
                Subthreshold Leakage with power gating = 0.00279284 W
                Gate Leakage = 0.000278362 W
                Runtime Dynamic = 0.00064675 W

              Local Predictor:
              L1_Local Predictor:
                Area = 0.0257064 mm^2
                Peak Dynamic = 0.0142575 W
                Subthreshold Leakage = 0.00273579 W
                Subthreshold Leakage with power gating = 0.00141387 W
                Gate Leakage = 0.000154548 W
                Runtime Dynamic = 0.000558928 W

              L2_Local Predictor:
                Area = 0.0151917 mm^2
                Peak Dynamic = 0.00527447 W
                Subthreshold Leakage = 0.00129084 W
                Subthreshold Leakage with power gating = 0.000681231 W
                Gate Leakage = 8.00196e-05 W
                Runtime Dynamic = 0.000213969 W

              Chooser:
                Area = 0.0435221 mm^2
                Peak Dynamic = 0.0168831 W
                Subthreshold Leakage = 0.00540773 W
                Subthreshold Leakage with power gating = 0.00279284 W
                Gate Leakage = 0.000278362 W
                Runtime Dynamic = 0.00064675 W

              RAS:
                Area = 0.0105732 mm^2
                Peak Dynamic = 0.0117602 W
                Subthreshold Leakage = 0.000663763 W
                Subthreshold Leakage with power gating = 0.000352154 W
                Gate Leakage = 4.63858e-05 W
                Runtime Dynamic = 0.000323926 W

          Instruction Buffer:
            Area = 0.0226323 mm^2
            Peak Dynamic = 0.606827 W
            Subthreshold Leakage = 0.00108112 W
            Subthreshold Leakage with power gating = 0.000499461 W
            Gate Leakage = 6.83558e-05 W
            Runtime Dynamic = 0.0216774 W

          Instruction Decoder:
            Area = 1.85799 mm^2
            Peak Dynamic = 1.37404 W
            Subthreshold Leakage = 0.31529 W
            Subthreshold Leakage with power gating = 0.118234 W
            Gate Leakage = 0.0222493 W
            Runtime Dynamic = 0.0736263 W

      Load Store Unit:
        Area = 8.05439 mm^2
        Peak Dynamic = 1.23848 W
        Subthreshold Leakage = 0.453895 W
        Subthreshold Leakage with power gating = 0.212713 W
        Gate Leakage = 0.0437459 W
        Runtime Dynamic = 0.000702062 W

          Data Cache:
            Area = 6.84535 mm^2
            Peak Dynamic = 1.23822 W
            Subthreshold Leakage = 0.375602 W
            Subthreshold Leakage with power gating = 0.178556 W
            Gate Leakage = 0.0279261 W
            Runtime Dynamic = 0.000526973 W

          Load/Store Queue:
            Area = 0.322079 mm^2
            Peak Dynamic = 8.76263e-05 W
            Subthreshold Leakage = 0.0246015 W
            Subthreshold Leakage with power gating = 0.0140229 W
            Gate Leakage = 0.00329971 W
            Runtime Dynamic = 0.000175089 W

      Memory Management Unit:
        Area = 0.559739 mm^2
        Peak Dynamic = 0.684653 W
        Subthreshold Leakage = 0.0942255 W
        Subthreshold Leakage with power gating = 0.0432387 W
        Gate Leakage = 0.0173421 W
        Runtime Dynamic = 5.28724e-05 W

          Itlb:
            Area = 0.301552 mm^2
            Peak Dynamic = 0.0857333 W
            Subthreshold Leakage = 0.0294516 W
            Subthreshold Leakage with power gating = 0.0167874 W
            Gate Leakage = 0.00393464 W
            Runtime Dynamic = 2.18026e-05 W

          Dtlb:
            Area = 0.0879726 mm^2
            Peak Dynamic = 3.10989e-05 W
            Subthreshold Leakage = 0.0110828 W
            Subthreshold Leakage with power gating = 0.00631717 W
            Gate Leakage = 0.00088729 W
            Runtime Dynamic = 3.10697e-05 W

      Execution Unit:
        Area = 6.14103 mm^2
        Peak Dynamic = 0.242222 W
        Subthreshold Leakage = 1.25199 W
        Subthreshold Leakage with power gating = 0.469807 W
        Gate Leakage = 0.12351 W
        Runtime Dynamic = 0.210459 W

          Register Files:
            Area = 0.570804 mm^2
            Peak Dynamic = 0.0354216 W
            Subthreshold Leakage = 0.00721681 W
            Subthreshold Leakage with power gating = 0.00301552 W
            Gate Leakage = 0.000622708 W
            Runtime Dynamic = 0.0255986 W

              Integer RF:
                Area = 0.362673 mm^2
                Peak Dynamic = 0.0183812 W
                Subthreshold Leakage = 0.00437174 W
                Subthreshold Leakage with power gating = 0.00175585 W
                Gate Leakage = 0.00038992 W
                Runtime Dynamic = 0.0225495 W

              Floating Point RF:
                Area = 0.208131 mm^2
                Peak Dynamic = 0.0170404 W
                Subthreshold Leakage = 0.00284507 W
                Subthreshold Leakage with power gating = 0.00125967 W
                Gate Leakage = 0.000232788 W
                Runtime Dynamic = 0.00304904 W

          Instruction Scheduler:
            Area = 0 mm^2
            Peak Dynamic = 0 W
            Subthreshold Leakage = 0 W
            Subthreshold Leakage with power gating = -nan W
            Gate Leakage = 0 W
            Runtime Dynamic = 0 W

          Integer ALUs (Count: 6 ):
            Area = 0.47087 mm^2
            Peak Dynamic = 0.0662926 W
            Subthreshold Leakage = 0.286303 W
            Subthreshold Leakage with power gating = 0.107364 W
            Gate Leakage = 0.0265291 W
            Runtime Dynamic = 0.0530422 W

          Floating Point Units (FPUs) (Count: 2 ):
            Area = 4.6585 mm^2
            Peak Dynamic = 0.0793593 W
            Subthreshold Leakage = 0.708126 W
            Subthreshold Leakage with power gating = 0.265547 W
            Gate Leakage = 0.0656156 W
            Runtime Dynamic = 0.0396791 W

          Complex ALUs (Mul/Div) (Count: 1 ):
            Area = 0.235435 mm^2
            Peak Dynamic = 0 W
            Subthreshold Leakage = 0.143151 W
            Subthreshold Leakage with power gating = 0.0536818 W
            Gate Leakage = 0.0132646 W
            Runtime Dynamic = 0 W

          Results Broadcast Bus:
            Area Overhead = 0.0352036 mm^2
            Peak Dynamic = 0.0254829 W
            Subthreshold Leakage = 0.0535057 W
            Subthreshold Leakage with power gating = 0.0200646 W
            Gate Leakage = 0.00495789 W
            Runtime Dynamic = 0.0921394 W

    L2
    Area = 4.53318 mm^2
    Peak Dynamic = 0 W
    Subthreshold Leakage = 0.593748 W
    Subthreshold Leakage with power gating = 0.285481 W
    Gate Leakage = 0.015464 W
    Runtime Dynamic = 7.12327e-09 W

*****************************************************************************************
Core:
      Area = 25.6888 mm^2
      Peak Dynamic = 6.01942 W
      Subthreshold Leakage = 3.22341 W
      Subthreshold Leakage with power gating = 1.36419 W
      Gate Leakage = 0.280015 W
      Runtime Dynamic = 0.315184 W

      Instruction Fetch Unit:
        Area = 5.98523 mm^2
        Peak Dynamic = 3.85407 W
        Subthreshold Leakage = 0.703301 W
        Subthreshold Leakage with power gating = 0.305608 W
        Gate Leakage = 0.0682541 W
        Runtime Dynamic = 0.103971 W

          Instruction Cache:
            Area = 3.14635 mm^2
            Peak Dynamic = 1.37887 W
            Subthreshold Leakage = 0.261248 W
            Subthreshold Leakage with power gating = 0.1284 W
            Gate Leakage = 0.029931 W
            Runtime Dynamic = 0.000132655 W

          Branch Target Buffer:
            Area = 0.64954 mm^2
            Peak Dynamic = 0.177867 W
            Subthreshold Leakage = 0.057776 W
            Subthreshold Leakage with power gating = 0.030989 W
            Gate Leakage = 0.00272758 W
            Runtime Dynamic = 0.00635783 W

          Branch Predictor:
            Area = 0.138516 mm^2
            Peak Dynamic = 0.0597838 W
            Subthreshold Leakage = 0.014215 W
            Subthreshold Leakage with power gating = 0.0073517 W
            Gate Leakage = 0.000757657 W
            Runtime Dynamic = 0.00217635 W

              Global Predictor:
                Area = 0.0435221 mm^2
                Peak Dynamic = 0.0168831 W
                Subthreshold Leakage = 0.00540773 W
                Subthreshold Leakage with power gating = 0.00279284 W
                Gate Leakage = 0.000278362 W
                Runtime Dynamic = 0.000646748 W

              Local Predictor:
              L1_Local Predictor:
                Area = 0.0257064 mm^2
                Peak Dynamic = 0.0142575 W
                Subthreshold Leakage = 0.00273579 W
                Subthreshold Leakage with power gating = 0.00141387 W
                Gate Leakage = 0.000154548 W
                Runtime Dynamic = 0.000558926 W

              L2_Local Predictor:
                Area = 0.0151917 mm^2
                Peak Dynamic = 0.00527447 W
                Subthreshold Leakage = 0.00129084 W
                Subthreshold Leakage with power gating = 0.000681231 W
                Gate Leakage = 8.00196e-05 W
                Runtime Dynamic = 0.000213968 W

              Chooser:
                Area = 0.0435221 mm^2
                Peak Dynamic = 0.0168831 W
                Subthreshold Leakage = 0.00540773 W
                Subthreshold Leakage with power gating = 0.00279284 W
                Gate Leakage = 0.000278362 W
                Runtime Dynamic = 0.000646748 W

              RAS:
                Area = 0.0105732 mm^2
                Peak Dynamic = 0.0117602 W
                Subthreshold Leakage = 0.000663763 W
                Subthreshold Leakage with power gating = 0.000352154 W
                Gate Leakage = 4.63858e-05 W
                Runtime Dynamic = 0.000323925 W

          Instruction Buffer:
            Area = 0.0226323 mm^2
            Peak Dynamic = 0.606827 W
            Subthreshold Leakage = 0.00108112 W
            Subthreshold Leakage with power gating = 0.000499461 W
            Gate Leakage = 6.83558e-05 W
            Runtime Dynamic = 0.0216774 W

          Instruction Decoder:
            Area = 1.85799 mm^2
            Peak Dynamic = 1.37404 W
            Subthreshold Leakage = 0.31529 W
            Subthreshold Leakage with power gating = 0.118234 W
            Gate Leakage = 0.0222493 W
            Runtime Dynamic = 0.0736263 W

      Load Store Unit:
        Area = 8.05439 mm^2
        Peak Dynamic = 1.23848 W
        Subthreshold Leakage = 0.453895 W
        Subthreshold Leakage with power gating = 0.212713 W
        Gate Leakage = 0.0437459 W
        Runtime Dynamic = 0.000701712 W

          Data Cache:
            Area = 6.84535 mm^2
            Peak Dynamic = 1.23822 W
            Subthreshold Leakage = 0.375602 W
            Subthreshold Leakage with power gating = 0.178556 W
            Gate Leakage = 0.0279261 W
            Runtime Dynamic = 0.00052671 W

          Load/Store Queue:
            Area = 0.322079 mm^2
            Peak Dynamic = 8.76263e-05 W
            Subthreshold Leakage = 0.0246015 W
            Subthreshold Leakage with power gating = 0.0140229 W
            Gate Leakage = 0.00329971 W
            Runtime Dynamic = 0.000175001 W

      Memory Management Unit:
        Area = 0.559739 mm^2
        Peak Dynamic = 0.684653 W
        Subthreshold Leakage = 0.0942255 W
        Subthreshold Leakage with power gating = 0.0432387 W
        Gate Leakage = 0.0173421 W
        Runtime Dynamic = 5.28404e-05 W

          Itlb:
            Area = 0.301552 mm^2
            Peak Dynamic = 0.0857329 W
            Subthreshold Leakage = 0.0294516 W
            Subthreshold Leakage with power gating = 0.0167874 W
            Gate Leakage = 0.00393464 W
            Runtime Dynamic = 2.17861e-05 W

          Dtlb:
            Area = 0.0879726 mm^2
            Peak Dynamic = 3.10989e-05 W
            Subthreshold Leakage = 0.0110828 W
            Subthreshold Leakage with power gating = 0.00631717 W
            Gate Leakage = 0.00088729 W
            Runtime Dynamic = 3.10542e-05 W

      Execution Unit:
        Area = 6.14103 mm^2
        Peak Dynamic = 0.242222 W
        Subthreshold Leakage = 1.25199 W
        Subthreshold Leakage with power gating = 0.469807 W
        Gate Leakage = 0.12351 W
        Runtime Dynamic = 0.210459 W

          Register Files:
            Area = 0.570804 mm^2
            Peak Dynamic = 0.0354216 W
            Subthreshold Leakage = 0.00721681 W
            Subthreshold Leakage with power gating = 0.00301552 W
            Gate Leakage = 0.000622708 W
            Runtime Dynamic = 0.0255985 W

              Integer RF:
                Area = 0.362673 mm^2
                Peak Dynamic = 0.0183812 W
                Subthreshold Leakage = 0.00437174 W
                Subthreshold Leakage with power gating = 0.00175585 W
                Gate Leakage = 0.00038992 W
                Runtime Dynamic = 0.0225495 W

              Floating Point RF:
                Area = 0.208131 mm^2
                Peak Dynamic = 0.0170404 W
                Subthreshold Leakage = 0.00284507 W
                Subthreshold Leakage with power gating = 0.00125967 W
                Gate Leakage = 0.000232788 W
                Runtime Dynamic = 0.00304904 W

          Instruction Scheduler:
            Area = 0 mm^2
            Peak Dynamic = 0 W
            Subthreshold Leakage = 0 W
            Subthreshold Leakage with power gating = -nan W
            Gate Leakage = 0 W
            Runtime Dynamic = 0 W

          Integer ALUs (Count: 6 ):
            Area = 0.47087 mm^2
            Peak Dynamic = 0.0662926 W
            Subthreshold Leakage = 0.286303 W
            Subthreshold Leakage with power gating = 0.107364 W
            Gate Leakage = 0.0265291 W
            Runtime Dynamic = 0.0530421 W

          Floating Point Units (FPUs) (Count: 2 ):
            Area = 4.6585 mm^2
            Peak Dynamic = 0.0793593 W
            Subthreshold Leakage = 0.708126 W
            Subthreshold Leakage with power gating = 0.265547 W
            Gate Leakage = 0.0656156 W
            Runtime Dynamic = 0.0396791 W

          Complex ALUs (Mul/Div) (Count: 1 ):
            Area = 0.235435 mm^2
            Peak Dynamic = 0 W
            Subthreshold Leakage = 0.143151 W
            Subthreshold Leakage with power gating = 0.0536818 W
            Gate Leakage = 0.0132646 W
            Runtime Dynamic = 0 W

          Results Broadcast Bus:
            Area Overhead = 0.0352036 mm^2
            Peak Dynamic = 0.0254829 W
            Subthreshold Leakage = 0.0535057 W
            Subthreshold Leakage with power gating = 0.0200646 W
            Gate Leakage = 0.00495789 W
            Runtime Dynamic = 0.0921393 W

    L2
    Area = 4.53318 mm^2
    Peak Dynamic = 0 W
    Subthreshold Leakage = 0.593748 W
    Subthreshold Leakage with power gating = 0.285481 W
    Gate Leakage = 0.015464 W
    Runtime Dynamic = 7.12327e-09 W

*****************************************************************************************
Core:
      Area = 25.6888 mm^2
      Peak Dynamic = 6.01942 W
      Subthreshold Leakage = 3.22341 W
      Subthreshold Leakage with power gating = 1.36419 W
      Gate Leakage = 0.280015 W
      Runtime Dynamic = 0.315184 W

      Instruction Fetch Unit:
        Area = 5.98523 mm^2
        Peak Dynamic = 3.85407 W
        Subthreshold Leakage = 0.703301 W
        Subthreshold Leakage with power gating = 0.305608 W
        Gate Leakage = 0.0682541 W
        Runtime Dynamic = 0.103971 W

          Instruction Cache:
            Area = 3.14635 mm^2
            Peak Dynamic = 1.37887 W
            Subthreshold Leakage = 0.261248 W
            Subthreshold Leakage with power gating = 0.1284 W
            Gate Leakage = 0.029931 W
            Runtime Dynamic = 0.000132655 W

          Branch Target Buffer:
            Area = 0.64954 mm^2
            Peak Dynamic = 0.177867 W
            Subthreshold Leakage = 0.057776 W
            Subthreshold Leakage with power gating = 0.030989 W
            Gate Leakage = 0.00272758 W
            Runtime Dynamic = 0.00635783 W

          Branch Predictor:
            Area = 0.138516 mm^2
            Peak Dynamic = 0.0597838 W
            Subthreshold Leakage = 0.014215 W
            Subthreshold Leakage with power gating = 0.0073517 W
            Gate Leakage = 0.000757657 W
            Runtime Dynamic = 0.00217635 W

              Global Predictor:
                Area = 0.0435221 mm^2
                Peak Dynamic = 0.0168831 W
                Subthreshold Leakage = 0.00540773 W
                Subthreshold Leakage with power gating = 0.00279284 W
                Gate Leakage = 0.000278362 W
                Runtime Dynamic = 0.000646748 W

              Local Predictor:
              L1_Local Predictor:
                Area = 0.0257064 mm^2
                Peak Dynamic = 0.0142575 W
                Subthreshold Leakage = 0.00273579 W
                Subthreshold Leakage with power gating = 0.00141387 W
                Gate Leakage = 0.000154548 W
                Runtime Dynamic = 0.000558926 W

              L2_Local Predictor:
                Area = 0.0151917 mm^2
                Peak Dynamic = 0.00527447 W
                Subthreshold Leakage = 0.00129084 W
                Subthreshold Leakage with power gating = 0.000681231 W
                Gate Leakage = 8.00196e-05 W
                Runtime Dynamic = 0.000213968 W

              Chooser:
                Area = 0.0435221 mm^2
                Peak Dynamic = 0.0168831 W
                Subthreshold Leakage = 0.00540773 W
                Subthreshold Leakage with power gating = 0.00279284 W
                Gate Leakage = 0.000278362 W
                Runtime Dynamic = 0.000646748 W

              RAS:
                Area = 0.0105732 mm^2
                Peak Dynamic = 0.0117602 W
                Subthreshold Leakage = 0.000663763 W
                Subthreshold Leakage with power gating = 0.000352154 W
                Gate Leakage = 4.63858e-05 W
                Runtime Dynamic = 0.000323925 W

          Instruction Buffer:
            Area = 0.0226323 mm^2
            Peak Dynamic = 0.606827 W
            Subthreshold Leakage = 0.00108112 W
            Subthreshold Leakage with power gating = 0.000499461 W
            Gate Leakage = 6.83558e-05 W
            Runtime Dynamic = 0.0216774 W

          Instruction Decoder:
            Area = 1.85799 mm^2
            Peak Dynamic = 1.37404 W
            Subthreshold Leakage = 0.31529 W
            Subthreshold Leakage with power gating = 0.118234 W
            Gate Leakage = 0.0222493 W
            Runtime Dynamic = 0.0736263 W

      Load Store Unit:
        Area = 8.05439 mm^2
        Peak Dynamic = 1.23848 W
        Subthreshold Leakage = 0.453895 W
        Subthreshold Leakage with power gating = 0.212713 W
        Gate Leakage = 0.0437459 W
        Runtime Dynamic = 0.000701712 W

          Data Cache:
            Area = 6.84535 mm^2
            Peak Dynamic = 1.23822 W
            Subthreshold Leakage = 0.375602 W
            Subthreshold Leakage with power gating = 0.178556 W
            Gate Leakage = 0.0279261 W
            Runtime Dynamic = 0.00052671 W

          Load/Store Queue:
            Area = 0.322079 mm^2
            Peak Dynamic = 8.76263e-05 W
            Subthreshold Leakage = 0.0246015 W
            Subthreshold Leakage with power gating = 0.0140229 W
            Gate Leakage = 0.00329971 W
            Runtime Dynamic = 0.000175001 W

      Memory Management Unit:
        Area = 0.559739 mm^2
        Peak Dynamic = 0.684653 W
        Subthreshold Leakage = 0.0942255 W
        Subthreshold Leakage with power gating = 0.0432387 W
        Gate Leakage = 0.0173421 W
        Runtime Dynamic = 5.28404e-05 W

          Itlb:
            Area = 0.301552 mm^2
            Peak Dynamic = 0.0857329 W
            Subthreshold Leakage = 0.0294516 W
            Subthreshold Leakage with power gating = 0.0167874 W
            Gate Leakage = 0.00393464 W
            Runtime Dynamic = 2.17861e-05 W

          Dtlb:
            Area = 0.0879726 mm^2
            Peak Dynamic = 3.10989e-05 W
            Subthreshold Leakage = 0.0110828 W
            Subthreshold Leakage with power gating = 0.00631717 W
            Gate Leakage = 0.00088729 W
            Runtime Dynamic = 3.10542e-05 W

      Execution Unit:
        Area = 6.14103 mm^2
        Peak Dynamic = 0.242222 W
        Subthreshold Leakage = 1.25199 W
        Subthreshold Leakage with power gating = 0.469807 W
        Gate Leakage = 0.12351 W
        Runtime Dynamic = 0.210459 W

          Register Files:
            Area = 0.570804 mm^2
            Peak Dynamic = 0.0354216 W
            Subthreshold Leakage = 0.00721681 W
            Subthreshold Leakage with power gating = 0.00301552 W
            Gate Leakage = 0.000622708 W
            Runtime Dynamic = 0.0255985 W

              Integer RF:
                Area = 0.362673 mm^2
                Peak Dynamic = 0.0183812 W
                Subthreshold Leakage = 0.00437174 W
                Subthreshold Leakage with power gating = 0.00175585 W
                Gate Leakage = 0.00038992 W
                Runtime Dynamic = 0.0225495 W

              Floating Point RF:
                Area = 0.208131 mm^2
                Peak Dynamic = 0.0170404 W
                Subthreshold Leakage = 0.00284507 W
                Subthreshold Leakage with power gating = 0.00125967 W
                Gate Leakage = 0.000232788 W
                Runtime Dynamic = 0.00304904 W

          Instruction Scheduler:
            Area = 0 mm^2
            Peak Dynamic = 0 W
            Subthreshold Leakage = 0 W
            Subthreshold Leakage with power gating = -nan W
            Gate Leakage = 0 W
            Runtime Dynamic = 0 W

          Integer ALUs (Count: 6 ):
            Area = 0.47087 mm^2
            Peak Dynamic = 0.0662926 W
            Subthreshold Leakage = 0.286303 W
            Subthreshold Leakage with power gating = 0.107364 W
            Gate Leakage = 0.0265291 W
            Runtime Dynamic = 0.0530421 W

          Floating Point Units (FPUs) (Count: 2 ):
            Area = 4.6585 mm^2
            Peak Dynamic = 0.0793593 W
            Subthreshold Leakage = 0.708126 W
            Subthreshold Leakage with power gating = 0.265547 W
            Gate Leakage = 0.0656156 W
            Runtime Dynamic = 0.0396791 W

          Complex ALUs (Mul/Div) (Count: 1 ):
            Area = 0.235435 mm^2
            Peak Dynamic = 0 W
            Subthreshold Leakage = 0.143151 W
            Subthreshold Leakage with power gating = 0.0536818 W
            Gate Leakage = 0.0132646 W
            Runtime Dynamic = 0 W

          Results Broadcast Bus:
            Area Overhead = 0.0352036 mm^2
            Peak Dynamic = 0.0254829 W
            Subthreshold Leakage = 0.0535057 W
            Subthreshold Leakage with power gating = 0.0200646 W
            Gate Leakage = 0.00495789 W
            Runtime Dynamic = 0.0921393 W

    L2
    Area = 4.53318 mm^2
    Peak Dynamic = 0 W
    Subthreshold Leakage = 0.593748 W
    Subthreshold Leakage with power gating = 0.285481 W
    Gate Leakage = 0.015464 W
    Runtime Dynamic = 7.12327e-09 W

*****************************************************************************************
Core:
      Area = 25.6888 mm^2
      Peak Dynamic = 6.01944 W
      Subthreshold Leakage = 3.22341 W
      Subthreshold Leakage with power gating = 1.36419 W
      Gate Leakage = 0.280015 W
      Runtime Dynamic = 0.31519 W

      Instruction Fetch Unit:
        Area = 5.98523 mm^2
        Peak Dynamic = 3.85409 W
        Subthreshold Leakage = 0.703301 W
        Subthreshold Leakage with power gating = 0.305608 W
        Gate Leakage = 0.0682541 W
        Runtime Dynamic = 0.103972 W

          Instruction Cache:
            Area = 3.14635 mm^2
            Peak Dynamic = 1.37888 W
            Subthreshold Leakage = 0.261248 W
            Subthreshold Leakage with power gating = 0.1284 W
            Gate Leakage = 0.029931 W
            Runtime Dynamic = 0.000133377 W

          Branch Target Buffer:
            Area = 0.64954 mm^2
            Peak Dynamic = 0.177867 W
            Subthreshold Leakage = 0.057776 W
            Subthreshold Leakage with power gating = 0.030989 W
            Gate Leakage = 0.00272758 W
            Runtime Dynamic = 0.00635791 W

          Branch Predictor:
            Area = 0.138516 mm^2
            Peak Dynamic = 0.0597838 W
            Subthreshold Leakage = 0.014215 W
            Subthreshold Leakage with power gating = 0.0073517 W
            Gate Leakage = 0.000757657 W
            Runtime Dynamic = 0.00217638 W

              Global Predictor:
                Area = 0.0435221 mm^2
                Peak Dynamic = 0.0168831 W
                Subthreshold Leakage = 0.00540773 W
                Subthreshold Leakage with power gating = 0.00279284 W
                Gate Leakage = 0.000278362 W
                Runtime Dynamic = 0.000646758 W

              Local Predictor:
              L1_Local Predictor:
                Area = 0.0257064 mm^2
                Peak Dynamic = 0.0142575 W
                Subthreshold Leakage = 0.00273579 W
                Subthreshold Leakage with power gating = 0.00141387 W
                Gate Leakage = 0.000154548 W
                Runtime Dynamic = 0.000558935 W

              L2_Local Predictor:
                Area = 0.0151917 mm^2
                Peak Dynamic = 0.00527447 W
                Subthreshold Leakage = 0.00129084 W
                Subthreshold Leakage with power gating = 0.000681231 W
                Gate Leakage = 8.00196e-05 W
                Runtime Dynamic = 0.000213972 W

              Chooser:
                Area = 0.0435221 mm^2
                Peak Dynamic = 0.0168831 W
                Subthreshold Leakage = 0.00540773 W
                Subthreshold Leakage with power gating = 0.00279284 W
                Gate Leakage = 0.000278362 W
                Runtime Dynamic = 0.000646758 W

              RAS:
                Area = 0.0105732 mm^2
                Peak Dynamic = 0.0117602 W
                Subthreshold Leakage = 0.000663763 W
                Subthreshold Leakage with power gating = 0.000352154 W
                Gate Leakage = 4.63858e-05 W
                Runtime Dynamic = 0.000323928 W

          Instruction Buffer:
            Area = 0.0226323 mm^2
            Peak Dynamic = 0.606827 W
            Subthreshold Leakage = 0.00108112 W
            Subthreshold Leakage with power gating = 0.000499461 W
            Gate Leakage = 6.83558e-05 W
            Runtime Dynamic = 0.0216776 W

          Instruction Decoder:
            Area = 1.85799 mm^2
            Peak Dynamic = 1.37404 W
            Subthreshold Leakage = 0.31529 W
            Subthreshold Leakage with power gating = 0.118234 W
            Gate Leakage = 0.0222493 W
            Runtime Dynamic = 0.0736268 W

      Load Store Unit:
        Area = 8.05439 mm^2
        Peak Dynamic = 1.23848 W
        Subthreshold Leakage = 0.453895 W
        Subthreshold Leakage with power gating = 0.212713 W
        Gate Leakage = 0.0437459 W
        Runtime Dynamic = 0.000704795 W

          Data Cache:
            Area = 6.84535 mm^2
            Peak Dynamic = 1.23822 W
            Subthreshold Leakage = 0.375602 W
            Subthreshold Leakage with power gating = 0.178556 W
            Gate Leakage = 0.0279261 W
            Runtime Dynamic = 0.000529024 W

          Load/Store Queue:
            Area = 0.322079 mm^2
            Peak Dynamic = 8.76263e-05 W
            Subthreshold Leakage = 0.0246015 W
            Subthreshold Leakage with power gating = 0.0140229 W
            Gate Leakage = 0.00329971 W
            Runtime Dynamic = 0.00017577 W

      Memory Management Unit:
        Area = 0.559739 mm^2
        Peak Dynamic = 0.684654 W
        Subthreshold Leakage = 0.0942255 W
        Subthreshold Leakage with power gating = 0.0432387 W
        Gate Leakage = 0.0173421 W
        Runtime Dynamic = 5.30976e-05 W

          Itlb:
            Area = 0.301552 mm^2
            Peak Dynamic = 0.0857337 W
            Subthreshold Leakage = 0.0294516 W
            Subthreshold Leakage with power gating = 0.0167874 W
            Gate Leakage = 0.00393464 W
            Runtime Dynamic = 2.19069e-05 W

          Dtlb:
            Area = 0.0879726 mm^2
            Peak Dynamic = 3.10989e-05 W
            Subthreshold Leakage = 0.0110828 W
            Subthreshold Leakage with power gating = 0.00631717 W
            Gate Leakage = 0.00088729 W
            Runtime Dynamic = 3.11907e-05 W

      Execution Unit:
        Area = 6.14103 mm^2
        Peak Dynamic = 0.242222 W
        Subthreshold Leakage = 1.25199 W
        Subthreshold Leakage with power gating = 0.469807 W
        Gate Leakage = 0.12351 W
        Runtime Dynamic = 0.21046 W

          Register Files:
            Area = 0.570804 mm^2
            Peak Dynamic = 0.0354216 W
            Subthreshold Leakage = 0.00721681 W
            Subthreshold Leakage with power gating = 0.00301552 W
            Gate Leakage = 0.000622708 W
            Runtime Dynamic = 0.0255987 W

              Integer RF:
                Area = 0.362673 mm^2
                Peak Dynamic = 0.0183812 W
                Subthreshold Leakage = 0.00437174 W
                Subthreshold Leakage with power gating = 0.00175585 W
                Gate Leakage = 0.00038992 W
                Runtime Dynamic = 0.0225497 W

              Floating Point RF:
                Area = 0.208131 mm^2
                Peak Dynamic = 0.0170404 W
                Subthreshold Leakage = 0.00284507 W
                Subthreshold Leakage with power gating = 0.00125967 W
                Gate Leakage = 0.000232788 W
                Runtime Dynamic = 0.00304906 W

          Instruction Scheduler:
            Area = 0 mm^2
            Peak Dynamic = 0 W
            Subthreshold Leakage = 0 W
            Subthreshold Leakage with power gating = -nan W
            Gate Leakage = 0 W
            Runtime Dynamic = 0 W

          Integer ALUs (Count: 6 ):
            Area = 0.47087 mm^2
            Peak Dynamic = 0.0662926 W
            Subthreshold Leakage = 0.286303 W
            Subthreshold Leakage with power gating = 0.107364 W
            Gate Leakage = 0.0265291 W
            Runtime Dynamic = 0.0530426 W

          Floating Point Units (FPUs) (Count: 2 ):
            Area = 4.6585 mm^2
            Peak Dynamic = 0.0793593 W
            Subthreshold Leakage = 0.708126 W
            Subthreshold Leakage with power gating = 0.265547 W
            Gate Leakage = 0.0656156 W
            Runtime Dynamic = 0.0396791 W

          Complex ALUs (Mul/Div) (Count: 1 ):
            Area = 0.235435 mm^2
            Peak Dynamic = 0 W
            Subthreshold Leakage = 0.143151 W
            Subthreshold Leakage with power gating = 0.0536818 W
            Gate Leakage = 0.0132646 W
            Runtime Dynamic = 0 W

          Results Broadcast Bus:
            Area Overhead = 0.0352036 mm^2
            Peak Dynamic = 0.0254829 W
            Subthreshold Leakage = 0.0535057 W
            Subthreshold Leakage with power gating = 0.0200646 W
            Gate Leakage = 0.00495789 W
            Runtime Dynamic = 0.0921399 W

    L2
    Area = 4.53318 mm^2
    Peak Dynamic = 0 W
    Subthreshold Leakage = 0.593748 W
    Subthreshold Leakage with power gating = 0.285481 W
    Gate Leakage = 0.015464 W
    Runtime Dynamic = 7.12327e-09 W

*****************************************************************************************
Core:
      Area = 25.6888 mm^2
      Peak Dynamic = 6.01944 W
      Subthreshold Leakage = 3.22341 W
      Subthreshold Leakage with power gating = 1.36419 W
      Gate Leakage = 0.280015 W
      Runtime Dynamic = 0.31519 W

      Instruction Fetch Unit:
        Area = 5.98523 mm^2
        Peak Dynamic = 3.85409 W
        Subthreshold Leakage = 0.703301 W
        Subthreshold Leakage with power gating = 0.305608 W
        Gate Leakage = 0.0682541 W
        Runtime Dynamic = 0.103972 W

          Instruction Cache:
            Area = 3.14635 mm^2
            Peak Dynamic = 1.37888 W
            Subthreshold Leakage = 0.261248 W
            Subthreshold Leakage with power gating = 0.1284 W
            Gate Leakage = 0.029931 W
            Runtime Dynamic = 0.000133333 W

          Branch Target Buffer:
            Area = 0.64954 mm^2
            Peak Dynamic = 0.177867 W
            Subthreshold Leakage = 0.057776 W
            Subthreshold Leakage with power gating = 0.030989 W
            Gate Leakage = 0.00272758 W
            Runtime Dynamic = 0.0063579 W

          Branch Predictor:
            Area = 0.138516 mm^2
            Peak Dynamic = 0.0597838 W
            Subthreshold Leakage = 0.014215 W
            Subthreshold Leakage with power gating = 0.0073517 W
            Gate Leakage = 0.000757657 W
            Runtime Dynamic = 0.00217638 W

              Global Predictor:
                Area = 0.0435221 mm^2
                Peak Dynamic = 0.0168831 W
                Subthreshold Leakage = 0.00540773 W
                Subthreshold Leakage with power gating = 0.00279284 W
                Gate Leakage = 0.000278362 W
                Runtime Dynamic = 0.000646757 W

              Local Predictor:
              L1_Local Predictor:
                Area = 0.0257064 mm^2
                Peak Dynamic = 0.0142575 W
                Subthreshold Leakage = 0.00273579 W
                Subthreshold Leakage with power gating = 0.00141387 W
                Gate Leakage = 0.000154548 W
                Runtime Dynamic = 0.000558934 W

              L2_Local Predictor:
                Area = 0.0151917 mm^2
                Peak Dynamic = 0.00527447 W
                Subthreshold Leakage = 0.00129084 W
                Subthreshold Leakage with power gating = 0.000681231 W
                Gate Leakage = 8.00196e-05 W
                Runtime Dynamic = 0.000213972 W

              Chooser:
                Area = 0.0435221 mm^2
                Peak Dynamic = 0.0168831 W
                Subthreshold Leakage = 0.00540773 W
                Subthreshold Leakage with power gating = 0.00279284 W
                Gate Leakage = 0.000278362 W
                Runtime Dynamic = 0.000646757 W

              RAS:
                Area = 0.0105732 mm^2
                Peak Dynamic = 0.0117602 W
                Subthreshold Leakage = 0.000663763 W
                Subthreshold Leakage with power gating = 0.000352154 W
                Gate Leakage = 4.63858e-05 W
                Runtime Dynamic = 0.000323927 W

          Instruction Buffer:
            Area = 0.0226323 mm^2
            Peak Dynamic = 0.606827 W
            Subthreshold Leakage = 0.00108112 W
            Subthreshold Leakage with power gating = 0.000499461 W
            Gate Leakage = 6.83558e-05 W
            Runtime Dynamic = 0.0216776 W

          Instruction Decoder:
            Area = 1.85799 mm^2
            Peak Dynamic = 1.37404 W
            Subthreshold Leakage = 0.31529 W
            Subthreshold Leakage with power gating = 0.118234 W
            Gate Leakage = 0.0222493 W
            Runtime Dynamic = 0.0736267 W

      Load Store Unit:
        Area = 8.05439 mm^2
        Peak Dynamic = 1.23848 W
        Subthreshold Leakage = 0.453895 W
        Subthreshold Leakage with power gating = 0.212713 W
        Gate Leakage = 0.0437459 W
        Runtime Dynamic = 0.00070504 W

          Data Cache:
            Area = 6.84535 mm^2
            Peak Dynamic = 1.23822 W
            Subthreshold Leakage = 0.375602 W
            Subthreshold Leakage with power gating = 0.178556 W
            Gate Leakage = 0.0279261 W
            Runtime Dynamic = 0.000529209 W

          Load/Store Queue:
            Area = 0.322079 mm^2
            Peak Dynamic = 8.76263e-05 W
            Subthreshold Leakage = 0.0246015 W
            Subthreshold Leakage with power gating = 0.0140229 W
            Gate Leakage = 0.00329971 W
            Runtime Dynamic = 0.000175831 W

      Memory Management Unit:
        Area = 0.559739 mm^2
        Peak Dynamic = 0.684654 W
        Subthreshold Leakage = 0.0942255 W
        Subthreshold Leakage with power gating = 0.0432387 W
        Gate Leakage = 0.0173421 W
        Runtime Dynamic = 5.31005e-05 W

          Itlb:
            Area = 0.301552 mm^2
            Peak Dynamic = 0.0857337 W
            Subthreshold Leakage = 0.0294516 W
            Subthreshold Leakage with power gating = 0.0167874 W
            Gate Leakage = 0.00393464 W
            Runtime Dynamic = 2.1899e-05 W

          Dtlb:
            Area = 0.0879726 mm^2
            Peak Dynamic = 3.10989e-05 W
            Subthreshold Leakage = 0.0110828 W
            Subthreshold Leakage with power gating = 0.00631717 W
            Gate Leakage = 0.00088729 W
            Runtime Dynamic = 3.12016e-05 W

      Execution Unit:
        Area = 6.14103 mm^2
        Peak Dynamic = 0.242222 W
        Subthreshold Leakage = 1.25199 W
        Subthreshold Leakage with power gating = 0.469807 W
        Gate Leakage = 0.12351 W
        Runtime Dynamic = 0.21046 W

          Register Files:
            Area = 0.570804 mm^2
            Peak Dynamic = 0.0354216 W
            Subthreshold Leakage = 0.00721681 W
            Subthreshold Leakage with power gating = 0.00301552 W
            Gate Leakage = 0.000622708 W
            Runtime Dynamic = 0.0255987 W

              Integer RF:
                Area = 0.362673 mm^2
                Peak Dynamic = 0.0183812 W
                Subthreshold Leakage = 0.00437174 W
                Subthreshold Leakage with power gating = 0.00175585 W
                Gate Leakage = 0.00038992 W
                Runtime Dynamic = 0.0225496 W

              Floating Point RF:
                Area = 0.208131 mm^2
                Peak Dynamic = 0.0170404 W
                Subthreshold Leakage = 0.00284507 W
                Subthreshold Leakage with power gating = 0.00125967 W
                Gate Leakage = 0.000232788 W
                Runtime Dynamic = 0.00304906 W

          Instruction Scheduler:
            Area = 0 mm^2
            Peak Dynamic = 0 W
            Subthreshold Leakage = 0 W
            Subthreshold Leakage with power gating = -nan W
            Gate Leakage = 0 W
            Runtime Dynamic = 0 W

          Integer ALUs (Count: 6 ):
            Area = 0.47087 mm^2
            Peak Dynamic = 0.0662926 W
            Subthreshold Leakage = 0.286303 W
            Subthreshold Leakage with power gating = 0.107364 W
            Gate Leakage = 0.0265291 W
            Runtime Dynamic = 0.0530425 W

          Floating Point Units (FPUs) (Count: 2 ):
            Area = 4.6585 mm^2
            Peak Dynamic = 0.0793593 W
            Subthreshold Leakage = 0.708126 W
            Subthreshold Leakage with power gating = 0.265547 W
            Gate Leakage = 0.0656156 W
            Runtime Dynamic = 0.0396791 W

          Complex ALUs (Mul/Div) (Count: 1 ):
            Area = 0.235435 mm^2
            Peak Dynamic = 0 W
            Subthreshold Leakage = 0.143151 W
            Subthreshold Leakage with power gating = 0.0536818 W
            Gate Leakage = 0.0132646 W
            Runtime Dynamic = 0 W

          Results Broadcast Bus:
            Area Overhead = 0.0352036 mm^2
            Peak Dynamic = 0.0254829 W
            Subthreshold Leakage = 0.0535057 W
            Subthreshold Leakage with power gating = 0.0200646 W
            Gate Leakage = 0.00495789 W
            Runtime Dynamic = 0.0921398 W

    L2
    Area = 4.53318 mm^2
    Peak Dynamic = 0 W
    Subthreshold Leakage = 0.593748 W
    Subthreshold Leakage with power gating = 0.285481 W
    Gate Leakage = 0.015464 W
    Runtime Dynamic = 7.12327e-09 W

*****************************************************************************************
Core:
      Area = 25.6888 mm^2
      Peak Dynamic = 6.01944 W
      Subthreshold Leakage = 3.22341 W
      Subthreshold Leakage with power gating = 1.36419 W
      Gate Leakage = 0.280015 W
      Runtime Dynamic = 0.31519 W

      Instruction Fetch Unit:
        Area = 5.98523 mm^2
        Peak Dynamic = 3.85409 W
        Subthreshold Leakage = 0.703301 W
        Subthreshold Leakage with power gating = 0.305608 W
        Gate Leakage = 0.0682541 W
        Runtime Dynamic = 0.103972 W

          Instruction Cache:
            Area = 3.14635 mm^2
            Peak Dynamic = 1.37888 W
            Subthreshold Leakage = 0.261248 W
            Subthreshold Leakage with power gating = 0.1284 W
            Gate Leakage = 0.029931 W
            Runtime Dynamic = 0.000133316 W

          Branch Target Buffer:
            Area = 0.64954 mm^2
            Peak Dynamic = 0.177867 W
            Subthreshold Leakage = 0.057776 W
            Subthreshold Leakage with power gating = 0.030989 W
            Gate Leakage = 0.00272758 W
            Runtime Dynamic = 0.0063579 W

          Branch Predictor:
            Area = 0.138516 mm^2
            Peak Dynamic = 0.0597838 W
            Subthreshold Leakage = 0.014215 W
            Subthreshold Leakage with power gating = 0.0073517 W
            Gate Leakage = 0.000757657 W
            Runtime Dynamic = 0.00217638 W

              Global Predictor:
                Area = 0.0435221 mm^2
                Peak Dynamic = 0.0168831 W
                Subthreshold Leakage = 0.00540773 W
                Subthreshold Leakage with power gating = 0.00279284 W
                Gate Leakage = 0.000278362 W
                Runtime Dynamic = 0.000646757 W

              Local Predictor:
              L1_Local Predictor:
                Area = 0.0257064 mm^2
                Peak Dynamic = 0.0142575 W
                Subthreshold Leakage = 0.00273579 W
                Subthreshold Leakage with power gating = 0.00141387 W
                Gate Leakage = 0.000154548 W
                Runtime Dynamic = 0.000558934 W

              L2_Local Predictor:
                Area = 0.0151917 mm^2
                Peak Dynamic = 0.00527447 W
                Subthreshold Leakage = 0.00129084 W
                Subthreshold Leakage with power gating = 0.000681231 W
                Gate Leakage = 8.00196e-05 W
                Runtime Dynamic = 0.000213971 W

              Chooser:
                Area = 0.0435221 mm^2
                Peak Dynamic = 0.0168831 W
                Subthreshold Leakage = 0.00540773 W
                Subthreshold Leakage with power gating = 0.00279284 W
                Gate Leakage = 0.000278362 W
                Runtime Dynamic = 0.000646757 W

              RAS:
                Area = 0.0105732 mm^2
                Peak Dynamic = 0.0117602 W
                Subthreshold Leakage = 0.000663763 W
                Subthreshold Leakage with power gating = 0.000352154 W
                Gate Leakage = 4.63858e-05 W
                Runtime Dynamic = 0.000323927 W

          Instruction Buffer:
            Area = 0.0226323 mm^2
            Peak Dynamic = 0.606827 W
            Subthreshold Leakage = 0.00108112 W
            Subthreshold Leakage with power gating = 0.000499461 W
            Gate Leakage = 6.83558e-05 W
            Runtime Dynamic = 0.0216776 W

          Instruction Decoder:
            Area = 1.85799 mm^2
            Peak Dynamic = 1.37404 W
            Subthreshold Leakage = 0.31529 W
            Subthreshold Leakage with power gating = 0.118234 W
            Gate Leakage = 0.0222493 W
            Runtime Dynamic = 0.0736267 W

      Load Store Unit:
        Area = 8.05439 mm^2
        Peak Dynamic = 1.23848 W
        Subthreshold Leakage = 0.453895 W
        Subthreshold Leakage with power gating = 0.212713 W
        Gate Leakage = 0.0437459 W
        Runtime Dynamic = 0.000705005 W

          Data Cache:
            Area = 6.84535 mm^2
            Peak Dynamic = 1.23822 W
            Subthreshold Leakage = 0.375602 W
            Subthreshold Leakage with power gating = 0.178556 W
            Gate Leakage = 0.0279261 W
            Runtime Dynamic = 0.000529182 W

          Load/Store Queue:
            Area = 0.322079 mm^2
            Peak Dynamic = 8.76263e-05 W
            Subthreshold Leakage = 0.0246015 W
            Subthreshold Leakage with power gating = 0.0140229 W
            Gate Leakage = 0.00329971 W
            Runtime Dynamic = 0.000175823 W

      Memory Management Unit:
        Area = 0.559739 mm^2
        Peak Dynamic = 0.684654 W
        Subthreshold Leakage = 0.0942255 W
        Subthreshold Leakage with power gating = 0.0432387 W
        Gate Leakage = 0.0173421 W
        Runtime Dynamic = 5.30961e-05 W

          Itlb:
            Area = 0.301552 mm^2
            Peak Dynamic = 0.0857337 W
            Subthreshold Leakage = 0.0294516 W
            Subthreshold Leakage with power gating = 0.0167874 W
            Gate Leakage = 0.00393464 W
            Runtime Dynamic = 2.18961e-05 W

          Dtlb:
            Area = 0.0879726 mm^2
            Peak Dynamic = 3.10989e-05 W
            Subthreshold Leakage = 0.0110828 W
            Subthreshold Leakage with power gating = 0.00631717 W
            Gate Leakage = 0.00088729 W
            Runtime Dynamic = 3.12e-05 W

      Execution Unit:
        Area = 6.14103 mm^2
        Peak Dynamic = 0.242222 W
        Subthreshold Leakage = 1.25199 W
        Subthreshold Leakage with power gating = 0.469807 W
        Gate Leakage = 0.12351 W
        Runtime Dynamic = 0.21046 W

          Register Files:
            Area = 0.570804 mm^2
            Peak Dynamic = 0.0354216 W
            Subthreshold Leakage = 0.00721681 W
            Subthreshold Leakage with power gating = 0.00301552 W
            Gate Leakage = 0.000622708 W
            Runtime Dynamic = 0.0255987 W

              Integer RF:
                Area = 0.362673 mm^2
                Peak Dynamic = 0.0183812 W
                Subthreshold Leakage = 0.00437174 W
                Subthreshold Leakage with power gating = 0.00175585 W
                Gate Leakage = 0.00038992 W
                Runtime Dynamic = 0.0225496 W

              Floating Point RF:
                Area = 0.208131 mm^2
                Peak Dynamic = 0.0170404 W
                Subthreshold Leakage = 0.00284507 W
                Subthreshold Leakage with power gating = 0.00125967 W
                Gate Leakage = 0.000232788 W
                Runtime Dynamic = 0.00304906 W

          Instruction Scheduler:
            Area = 0 mm^2
            Peak Dynamic = 0 W
            Subthreshold Leakage = 0 W
            Subthreshold Leakage with power gating = -nan W
            Gate Leakage = 0 W
            Runtime Dynamic = 0 W

          Integer ALUs (Count: 6 ):
            Area = 0.47087 mm^2
            Peak Dynamic = 0.0662926 W
            Subthreshold Leakage = 0.286303 W
            Subthreshold Leakage with power gating = 0.107364 W
            Gate Leakage = 0.0265291 W
            Runtime Dynamic = 0.0530425 W

          Floating Point Units (FPUs) (Count: 2 ):
            Area = 4.6585 mm^2
            Peak Dynamic = 0.0793593 W
            Subthreshold Leakage = 0.708126 W
            Subthreshold Leakage with power gating = 0.265547 W
            Gate Leakage = 0.0656156 W
            Runtime Dynamic = 0.0396791 W

          Complex ALUs (Mul/Div) (Count: 1 ):
            Area = 0.235435 mm^2
            Peak Dynamic = 0 W
            Subthreshold Leakage = 0.143151 W
            Subthreshold Leakage with power gating = 0.0536818 W
            Gate Leakage = 0.0132646 W
            Runtime Dynamic = 0 W

          Results Broadcast Bus:
            Area Overhead = 0.0352036 mm^2
            Peak Dynamic = 0.0254829 W
            Subthreshold Leakage = 0.0535057 W
            Subthreshold Leakage with power gating = 0.0200646 W
            Gate Leakage = 0.00495789 W
            Runtime Dynamic = 0.0921398 W

    L2
    Area = 4.53318 mm^2
    Peak Dynamic = 0 W
    Subthreshold Leakage = 0.593748 W
    Subthreshold Leakage with power gating = 0.285481 W
    Gate Leakage = 0.015464 W
    Runtime Dynamic = 7.12327e-09 W

*****************************************************************************************
Core:
      Area = 25.6888 mm^2
      Peak Dynamic = 6.01944 W
      Subthreshold Leakage = 3.22341 W
      Subthreshold Leakage with power gating = 1.36419 W
      Gate Leakage = 0.280015 W
      Runtime Dynamic = 0.31519 W

      Instruction Fetch Unit:
        Area = 5.98523 mm^2
        Peak Dynamic = 3.85409 W
        Subthreshold Leakage = 0.703301 W
        Subthreshold Leakage with power gating = 0.305608 W
        Gate Leakage = 0.0682541 W
        Runtime Dynamic = 0.103972 W

          Instruction Cache:
            Area = 3.14635 mm^2
            Peak Dynamic = 1.37888 W
            Subthreshold Leakage = 0.261248 W
            Subthreshold Leakage with power gating = 0.1284 W
            Gate Leakage = 0.029931 W
            Runtime Dynamic = 0.000133325 W

          Branch Target Buffer:
            Area = 0.64954 mm^2
            Peak Dynamic = 0.177867 W
            Subthreshold Leakage = 0.057776 W
            Subthreshold Leakage with power gating = 0.030989 W
            Gate Leakage = 0.00272758 W
            Runtime Dynamic = 0.0063579 W

          Branch Predictor:
            Area = 0.138516 mm^2
            Peak Dynamic = 0.0597838 W
            Subthreshold Leakage = 0.014215 W
            Subthreshold Leakage with power gating = 0.0073517 W
            Gate Leakage = 0.000757657 W
            Runtime Dynamic = 0.00217638 W

              Global Predictor:
                Area = 0.0435221 mm^2
                Peak Dynamic = 0.0168831 W
                Subthreshold Leakage = 0.00540773 W
                Subthreshold Leakage with power gating = 0.00279284 W
                Gate Leakage = 0.000278362 W
                Runtime Dynamic = 0.000646757 W

              Local Predictor:
              L1_Local Predictor:
                Area = 0.0257064 mm^2
                Peak Dynamic = 0.0142575 W
                Subthreshold Leakage = 0.00273579 W
                Subthreshold Leakage with power gating = 0.00141387 W
                Gate Leakage = 0.000154548 W
                Runtime Dynamic = 0.000558934 W

              L2_Local Predictor:
                Area = 0.0151917 mm^2
                Peak Dynamic = 0.00527447 W
                Subthreshold Leakage = 0.00129084 W
                Subthreshold Leakage with power gating = 0.000681231 W
                Gate Leakage = 8.00196e-05 W
                Runtime Dynamic = 0.000213972 W

              Chooser:
                Area = 0.0435221 mm^2
                Peak Dynamic = 0.0168831 W
                Subthreshold Leakage = 0.00540773 W
                Subthreshold Leakage with power gating = 0.00279284 W
                Gate Leakage = 0.000278362 W
                Runtime Dynamic = 0.000646757 W

              RAS:
                Area = 0.0105732 mm^2
                Peak Dynamic = 0.0117602 W
                Subthreshold Leakage = 0.000663763 W
                Subthreshold Leakage with power gating = 0.000352154 W
                Gate Leakage = 4.63858e-05 W
                Runtime Dynamic = 0.000323927 W

          Instruction Buffer:
            Area = 0.0226323 mm^2
            Peak Dynamic = 0.606827 W
            Subthreshold Leakage = 0.00108112 W
            Subthreshold Leakage with power gating = 0.000499461 W
            Gate Leakage = 6.83558e-05 W
            Runtime Dynamic = 0.0216776 W

          Instruction Decoder:
            Area = 1.85799 mm^2
            Peak Dynamic = 1.37404 W
            Subthreshold Leakage = 0.31529 W
            Subthreshold Leakage with power gating = 0.118234 W
            Gate Leakage = 0.0222493 W
            Runtime Dynamic = 0.0736267 W

      Load Store Unit:
        Area = 8.05439 mm^2
        Peak Dynamic = 1.23848 W
        Subthreshold Leakage = 0.453895 W
        Subthreshold Leakage with power gating = 0.212713 W
        Gate Leakage = 0.0437459 W
        Runtime Dynamic = 0.000705022 W

          Data Cache:
            Area = 6.84535 mm^2
            Peak Dynamic = 1.23822 W
            Subthreshold Leakage = 0.375602 W
            Subthreshold Leakage with power gating = 0.178556 W
            Gate Leakage = 0.0279261 W
            Runtime Dynamic = 0.000529195 W

          Load/Store Queue:
            Area = 0.322079 mm^2
            Peak Dynamic = 8.76263e-05 W
            Subthreshold Leakage = 0.0246015 W
            Subthreshold Leakage with power gating = 0.0140229 W
            Gate Leakage = 0.00329971 W
            Runtime Dynamic = 0.000175827 W

      Memory Management Unit:
        Area = 0.559739 mm^2
        Peak Dynamic = 0.684654 W
        Subthreshold Leakage = 0.0942255 W
        Subthreshold Leakage with power gating = 0.0432387 W
        Gate Leakage = 0.0173421 W
        Runtime Dynamic = 5.30983e-05 W

          Itlb:
            Area = 0.301552 mm^2
            Peak Dynamic = 0.0857337 W
            Subthreshold Leakage = 0.0294516 W
            Subthreshold Leakage with power gating = 0.0167874 W
            Gate Leakage = 0.00393464 W
            Runtime Dynamic = 2.18975e-05 W

          Dtlb:
            Area = 0.0879726 mm^2
            Peak Dynamic = 3.10989e-05 W
            Subthreshold Leakage = 0.0110828 W
            Subthreshold Leakage with power gating = 0.00631717 W
            Gate Leakage = 0.00088729 W
            Runtime Dynamic = 3.12008e-05 W

      Execution Unit:
        Area = 6.14103 mm^2
        Peak Dynamic = 0.242222 W
        Subthreshold Leakage = 1.25199 W
        Subthreshold Leakage with power gating = 0.469807 W
        Gate Leakage = 0.12351 W
        Runtime Dynamic = 0.21046 W

          Register Files:
            Area = 0.570804 mm^2
            Peak Dynamic = 0.0354216 W
            Subthreshold Leakage = 0.00721681 W
            Subthreshold Leakage with power gating = 0.00301552 W
            Gate Leakage = 0.000622708 W
            Runtime Dynamic = 0.0255987 W

              Integer RF:
                Area = 0.362673 mm^2
                Peak Dynamic = 0.0183812 W
                Subthreshold Leakage = 0.00437174 W
                Subthreshold Leakage with power gating = 0.00175585 W
                Gate Leakage = 0.00038992 W
                Runtime Dynamic = 0.0225496 W

              Floating Point RF:
                Area = 0.208131 mm^2
                Peak Dynamic = 0.0170404 W
                Subthreshold Leakage = 0.00284507 W
                Subthreshold Leakage with power gating = 0.00125967 W
                Gate Leakage = 0.000232788 W
                Runtime Dynamic = 0.00304906 W

          Instruction Scheduler:
            Area = 0 mm^2
            Peak Dynamic = 0 W
            Subthreshold Leakage = 0 W
            Subthreshold Leakage with power gating = -nan W
            Gate Leakage = 0 W
            Runtime Dynamic = 0 W

          Integer ALUs (Count: 6 ):
            Area = 0.47087 mm^2
            Peak Dynamic = 0.0662926 W
            Subthreshold Leakage = 0.286303 W
            Subthreshold Leakage with power gating = 0.107364 W
            Gate Leakage = 0.0265291 W
            Runtime Dynamic = 0.0530425 W

          Floating Point Units (FPUs) (Count: 2 ):
            Area = 4.6585 mm^2
            Peak Dynamic = 0.0793593 W
            Subthreshold Leakage = 0.708126 W
            Subthreshold Leakage with power gating = 0.265547 W
            Gate Leakage = 0.0656156 W
            Runtime Dynamic = 0.0396791 W

          Complex ALUs (Mul/Div) (Count: 1 ):
            Area = 0.235435 mm^2
            Peak Dynamic = 0 W
            Subthreshold Leakage = 0.143151 W
            Subthreshold Leakage with power gating = 0.0536818 W
            Gate Leakage = 0.0132646 W
            Runtime Dynamic = 0 W

          Results Broadcast Bus:
            Area Overhead = 0.0352036 mm^2
            Peak Dynamic = 0.0254829 W
            Subthreshold Leakage = 0.0535057 W
            Subthreshold Leakage with power gating = 0.0200646 W
            Gate Leakage = 0.00495789 W
            Runtime Dynamic = 0.0921398 W

    L2
    Area = 4.53318 mm^2
    Peak Dynamic = 0 W
    Subthreshold Leakage = 0.593748 W
    Subthreshold Leakage with power gating = 0.285481 W
    Gate Leakage = 0.015464 W
    Runtime Dynamic = 7.12327e-09 W

*****************************************************************************************
Core:
      Area = 25.6888 mm^2
      Peak Dynamic = 6.01943 W
      Subthreshold Leakage = 3.22341 W
      Subthreshold Leakage with power gating = 1.36419 W
      Gate Leakage = 0.280015 W
      Runtime Dynamic = 0.315188 W

      Instruction Fetch Unit:
        Area = 5.98523 mm^2
        Peak Dynamic = 3.85408 W
        Subthreshold Leakage = 0.703301 W
        Subthreshold Leakage with power gating = 0.305608 W
        Gate Leakage = 0.0682541 W
        Runtime Dynamic = 0.103971 W

          Instruction Cache:
            Area = 3.14635 mm^2
            Peak Dynamic = 1.37887 W
            Subthreshold Leakage = 0.261248 W
            Subthreshold Leakage with power gating = 0.1284 W
            Gate Leakage = 0.029931 W
            Runtime Dynamic = 0.000133073 W

          Branch Target Buffer:
            Area = 0.64954 mm^2
            Peak Dynamic = 0.177867 W
            Subthreshold Leakage = 0.057776 W
            Subthreshold Leakage with power gating = 0.030989 W
            Gate Leakage = 0.00272758 W
            Runtime Dynamic = 0.00635788 W

          Branch Predictor:
            Area = 0.138516 mm^2
            Peak Dynamic = 0.0597838 W
            Subthreshold Leakage = 0.014215 W
            Subthreshold Leakage with power gating = 0.0073517 W
            Gate Leakage = 0.000757657 W
            Runtime Dynamic = 0.00217637 W

              Global Predictor:
                Area = 0.0435221 mm^2
                Peak Dynamic = 0.0168831 W
                Subthreshold Leakage = 0.00540773 W
                Subthreshold Leakage with power gating = 0.00279284 W
                Gate Leakage = 0.000278362 W
                Runtime Dynamic = 0.000646754 W

              Local Predictor:
              L1_Local Predictor:
                Area = 0.0257064 mm^2
                Peak Dynamic = 0.0142575 W
                Subthreshold Leakage = 0.00273579 W
                Subthreshold Leakage with power gating = 0.00141387 W
                Gate Leakage = 0.000154548 W
                Runtime Dynamic = 0.000558931 W

              L2_Local Predictor:
                Area = 0.0151917 mm^2
                Peak Dynamic = 0.00527447 W
                Subthreshold Leakage = 0.00129084 W
                Subthreshold Leakage with power gating = 0.000681231 W
                Gate Leakage = 8.00196e-05 W
                Runtime Dynamic = 0.00021397 W

              Chooser:
                Area = 0.0435221 mm^2
                Peak Dynamic = 0.0168831 W
                Subthreshold Leakage = 0.00540773 W
                Subthreshold Leakage with power gating = 0.00279284 W
                Gate Leakage = 0.000278362 W
                Runtime Dynamic = 0.000646754 W

              RAS:
                Area = 0.0105732 mm^2
                Peak Dynamic = 0.0117602 W
                Subthreshold Leakage = 0.000663763 W
                Subthreshold Leakage with power gating = 0.000352154 W
                Gate Leakage = 4.63858e-05 W
                Runtime Dynamic = 0.000323927 W

          Instruction Buffer:
            Area = 0.0226323 mm^2
            Peak Dynamic = 0.606827 W
            Subthreshold Leakage = 0.00108112 W
            Subthreshold Leakage with power gating = 0.000499461 W
            Gate Leakage = 6.83558e-05 W
            Runtime Dynamic = 0.0216775 W

          Instruction Decoder:
            Area = 1.85799 mm^2
            Peak Dynamic = 1.37404 W
            Subthreshold Leakage = 0.31529 W
            Subthreshold Leakage with power gating = 0.118234 W
            Gate Leakage = 0.0222493 W
            Runtime Dynamic = 0.0736266 W

      Load Store Unit:
        Area = 8.05439 mm^2
        Peak Dynamic = 1.23848 W
        Subthreshold Leakage = 0.453895 W
        Subthreshold Leakage with power gating = 0.212713 W
        Gate Leakage = 0.0437459 W
        Runtime Dynamic = 0.000704024 W

          Data Cache:
            Area = 6.84535 mm^2
            Peak Dynamic = 1.23822 W
            Subthreshold Leakage = 0.375602 W
            Subthreshold Leakage with power gating = 0.178556 W
            Gate Leakage = 0.0279261 W
            Runtime Dynamic = 0.000528446 W

          Load/Store Queue:
            Area = 0.322079 mm^2
            Peak Dynamic = 8.76263e-05 W
            Subthreshold Leakage = 0.0246015 W
            Subthreshold Leakage with power gating = 0.0140229 W
            Gate Leakage = 0.00329971 W
            Runtime Dynamic = 0.000175578 W

      Memory Management Unit:
        Area = 0.559739 mm^2
        Peak Dynamic = 0.684653 W
        Subthreshold Leakage = 0.0942255 W
        Subthreshold Leakage with power gating = 0.0432387 W
        Gate Leakage = 0.0173421 W
        Runtime Dynamic = 5.30128e-05 W

          Itlb:
            Area = 0.301552 mm^2
            Peak Dynamic = 0.0857333 W
            Subthreshold Leakage = 0.0294516 W
            Subthreshold Leakage with power gating = 0.0167874 W
            Gate Leakage = 0.00393464 W
            Runtime Dynamic = 2.18562e-05 W

          Dtlb:
            Area = 0.0879726 mm^2
            Peak Dynamic = 3.10989e-05 W
            Subthreshold Leakage = 0.0110828 W
            Subthreshold Leakage with power gating = 0.00631717 W
            Gate Leakage = 0.00088729 W
            Runtime Dynamic = 3.11566e-05 W

      Execution Unit:
        Area = 6.14103 mm^2
        Peak Dynamic = 0.242222 W
        Subthreshold Leakage = 1.25199 W
        Subthreshold Leakage with power gating = 0.469807 W
        Gate Leakage = 0.12351 W
        Runtime Dynamic = 0.21046 W

          Register Files:
            Area = 0.570804 mm^2
            Peak Dynamic = 0.0354216 W
            Subthreshold Leakage = 0.00721681 W
            Subthreshold Leakage with power gating = 0.00301552 W
            Gate Leakage = 0.000622708 W
            Runtime Dynamic = 0.0255987 W

              Integer RF:
                Area = 0.362673 mm^2
                Peak Dynamic = 0.0183812 W
                Subthreshold Leakage = 0.00437174 W
                Subthreshold Leakage with power gating = 0.00175585 W
                Gate Leakage = 0.00038992 W
                Runtime Dynamic = 0.0225496 W

              Floating Point RF:
                Area = 0.208131 mm^2
                Peak Dynamic = 0.0170404 W
                Subthreshold Leakage = 0.00284507 W
                Subthreshold Leakage with power gating = 0.00125967 W
                Gate Leakage = 0.000232788 W
                Runtime Dynamic = 0.00304905 W

          Instruction Scheduler:
            Area = 0 mm^2
            Peak Dynamic = 0 W
            Subthreshold Leakage = 0 W
            Subthreshold Leakage with power gating = -nan W
            Gate Leakage = 0 W
            Runtime Dynamic = 0 W

          Integer ALUs (Count: 6 ):
            Area = 0.47087 mm^2
            Peak Dynamic = 0.0662926 W
            Subthreshold Leakage = 0.286303 W
            Subthreshold Leakage with power gating = 0.107364 W
            Gate Leakage = 0.0265291 W
            Runtime Dynamic = 0.0530424 W

          Floating Point Units (FPUs) (Count: 2 ):
            Area = 4.6585 mm^2
            Peak Dynamic = 0.0793593 W
            Subthreshold Leakage = 0.708126 W
            Subthreshold Leakage with power gating = 0.265547 W
            Gate Leakage = 0.0656156 W
            Runtime Dynamic = 0.0396791 W

          Complex ALUs (Mul/Div) (Count: 1 ):
            Area = 0.235435 mm^2
            Peak Dynamic = 0 W
            Subthreshold Leakage = 0.143151 W
            Subthreshold Leakage with power gating = 0.0536818 W
            Gate Leakage = 0.0132646 W
            Runtime Dynamic = 0 W

          Results Broadcast Bus:
            Area Overhead = 0.0352036 mm^2
            Peak Dynamic = 0.0254829 W
            Subthreshold Leakage = 0.0535057 W
            Subthreshold Leakage with power gating = 0.0200646 W
            Gate Leakage = 0.00495789 W
            Runtime Dynamic = 0.0921397 W

    L2
    Area = 4.53318 mm^2
    Peak Dynamic = 0 W
    Subthreshold Leakage = 0.593748 W
    Subthreshold Leakage with power gating = 0.285481 W
    Gate Leakage = 0.015464 W
    Runtime Dynamic = 7.12327e-09 W

*****************************************************************************************
Core:
      Area = 25.6888 mm^2
      Peak Dynamic = 6.01943 W
      Subthreshold Leakage = 3.22341 W
      Subthreshold Leakage with power gating = 1.36419 W
      Gate Leakage = 0.280015 W
      Runtime Dynamic = 0.315187 W

      Instruction Fetch Unit:
        Area = 5.98523 mm^2
        Peak Dynamic = 3.85408 W
        Subthreshold Leakage = 0.703301 W
        Subthreshold Leakage with power gating = 0.305608 W
        Gate Leakage = 0.0682541 W
        Runtime Dynamic = 0.103971 W

          Instruction Cache:
            Area = 3.14635 mm^2
            Peak Dynamic = 1.37887 W
            Subthreshold Leakage = 0.261248 W
            Subthreshold Leakage with power gating = 0.1284 W
            Gate Leakage = 0.029931 W
            Runtime Dynamic = 0.000132994 W

          Branch Target Buffer:
            Area = 0.64954 mm^2
            Peak Dynamic = 0.177867 W
            Subthreshold Leakage = 0.057776 W
            Subthreshold Leakage with power gating = 0.030989 W
            Gate Leakage = 0.00272758 W
            Runtime Dynamic = 0.00635787 W

          Branch Predictor:
            Area = 0.138516 mm^2
            Peak Dynamic = 0.0597838 W
            Subthreshold Leakage = 0.014215 W
            Subthreshold Leakage with power gating = 0.0073517 W
            Gate Leakage = 0.000757657 W
            Runtime Dynamic = 0.00217636 W

              Global Predictor:
                Area = 0.0435221 mm^2
                Peak Dynamic = 0.0168831 W
                Subthreshold Leakage = 0.00540773 W
                Subthreshold Leakage with power gating = 0.00279284 W
                Gate Leakage = 0.000278362 W
                Runtime Dynamic = 0.000646753 W

              Local Predictor:
              L1_Local Predictor:
                Area = 0.0257064 mm^2
                Peak Dynamic = 0.0142575 W
                Subthreshold Leakage = 0.00273579 W
                Subthreshold Leakage with power gating = 0.00141387 W
                Gate Leakage = 0.000154548 W
                Runtime Dynamic = 0.000558931 W

              L2_Local Predictor:
                Area = 0.0151917 mm^2
                Peak Dynamic = 0.00527447 W
                Subthreshold Leakage = 0.00129084 W
                Subthreshold Leakage with power gating = 0.000681231 W
                Gate Leakage = 8.00196e-05 W
                Runtime Dynamic = 0.00021397 W

              Chooser:
                Area = 0.0435221 mm^2
                Peak Dynamic = 0.0168831 W
                Subthreshold Leakage = 0.00540773 W
                Subthreshold Leakage with power gating = 0.00279284 W
                Gate Leakage = 0.000278362 W
                Runtime Dynamic = 0.000646753 W

              RAS:
                Area = 0.0105732 mm^2
                Peak Dynamic = 0.0117602 W
                Subthreshold Leakage = 0.000663763 W
                Subthreshold Leakage with power gating = 0.000352154 W
                Gate Leakage = 4.63858e-05 W
                Runtime Dynamic = 0.000323927 W

          Instruction Buffer:
            Area = 0.0226323 mm^2
            Peak Dynamic = 0.606827 W
            Subthreshold Leakage = 0.00108112 W
            Subthreshold Leakage with power gating = 0.000499461 W
            Gate Leakage = 6.83558e-05 W
            Runtime Dynamic = 0.0216775 W

          Instruction Decoder:
            Area = 1.85799 mm^2
            Peak Dynamic = 1.37404 W
            Subthreshold Leakage = 0.31529 W
            Subthreshold Leakage with power gating = 0.118234 W
            Gate Leakage = 0.0222493 W
            Runtime Dynamic = 0.0736265 W

      Load Store Unit:
        Area = 8.05439 mm^2
        Peak Dynamic = 1.23848 W
        Subthreshold Leakage = 0.453895 W
        Subthreshold Leakage with power gating = 0.212713 W
        Gate Leakage = 0.0437459 W
        Runtime Dynamic = 0.000703411 W

          Data Cache:
            Area = 6.84535 mm^2
            Peak Dynamic = 1.23822 W
            Subthreshold Leakage = 0.375602 W
            Subthreshold Leakage with power gating = 0.178556 W
            Gate Leakage = 0.0279261 W
            Runtime Dynamic = 0.000527986 W

          Load/Store Queue:
            Area = 0.322079 mm^2
            Peak Dynamic = 8.76263e-05 W
            Subthreshold Leakage = 0.0246015 W
            Subthreshold Leakage with power gating = 0.0140229 W
            Gate Leakage = 0.00329971 W
            Runtime Dynamic = 0.000175425 W

      Memory Management Unit:
        Area = 0.559739 mm^2
        Peak Dynamic = 0.684653 W
        Subthreshold Leakage = 0.0942255 W
        Subthreshold Leakage with power gating = 0.0432387 W
        Gate Leakage = 0.0173421 W
        Runtime Dynamic = 5.2972e-05 W

          Itlb:
            Area = 0.301552 mm^2
            Peak Dynamic = 0.0857333 W
            Subthreshold Leakage = 0.0294516 W
            Subthreshold Leakage with power gating = 0.0167874 W
            Gate Leakage = 0.00393464 W
            Runtime Dynamic = 2.18425e-05 W

          Dtlb:
            Area = 0.0879726 mm^2
            Peak Dynamic = 3.10989e-05 W
            Subthreshold Leakage = 0.0110828 W
            Subthreshold Leakage with power gating = 0.00631717 W
            Gate Leakage = 0.00088729 W
            Runtime Dynamic = 3.11294e-05 W

      Execution Unit:
        Area = 6.14103 mm^2
        Peak Dynamic = 0.242222 W
        Subthreshold Leakage = 1.25199 W
        Subthreshold Leakage with power gating = 0.469807 W
        Gate Leakage = 0.12351 W
        Runtime Dynamic = 0.21046 W

          Register Files:
            Area = 0.570804 mm^2
            Peak Dynamic = 0.0354216 W
            Subthreshold Leakage = 0.00721681 W
            Subthreshold Leakage with power gating = 0.00301552 W
            Gate Leakage = 0.000622708 W
            Runtime Dynamic = 0.0255986 W

              Integer RF:
                Area = 0.362673 mm^2
                Peak Dynamic = 0.0183812 W
                Subthreshold Leakage = 0.00437174 W
                Subthreshold Leakage with power gating = 0.00175585 W
                Gate Leakage = 0.00038992 W
                Runtime Dynamic = 0.0225496 W

              Floating Point RF:
                Area = 0.208131 mm^2
                Peak Dynamic = 0.0170404 W
                Subthreshold Leakage = 0.00284507 W
                Subthreshold Leakage with power gating = 0.00125967 W
                Gate Leakage = 0.000232788 W
                Runtime Dynamic = 0.00304905 W

          Instruction Scheduler:
            Area = 0 mm^2
            Peak Dynamic = 0 W
            Subthreshold Leakage = 0 W
            Subthreshold Leakage with power gating = -nan W
            Gate Leakage = 0 W
            Runtime Dynamic = 0 W

          Integer ALUs (Count: 6 ):
            Area = 0.47087 mm^2
            Peak Dynamic = 0.0662926 W
            Subthreshold Leakage = 0.286303 W
            Subthreshold Leakage with power gating = 0.107364 W
            Gate Leakage = 0.0265291 W
            Runtime Dynamic = 0.0530423 W

          Floating Point Units (FPUs) (Count: 2 ):
            Area = 4.6585 mm^2
            Peak Dynamic = 0.0793593 W
            Subthreshold Leakage = 0.708126 W
            Subthreshold Leakage with power gating = 0.265547 W
            Gate Leakage = 0.0656156 W
            Runtime Dynamic = 0.0396791 W

          Complex ALUs (Mul/Div) (Count: 1 ):
            Area = 0.235435 mm^2
            Peak Dynamic = 0 W
            Subthreshold Leakage = 0.143151 W
            Subthreshold Leakage with power gating = 0.0536818 W
            Gate Leakage = 0.0132646 W
            Runtime Dynamic = 0 W

          Results Broadcast Bus:
            Area Overhead = 0.0352036 mm^2
            Peak Dynamic = 0.0254829 W
            Subthreshold Leakage = 0.0535057 W
            Subthreshold Leakage with power gating = 0.0200646 W
            Gate Leakage = 0.00495789 W
            Runtime Dynamic = 0.0921396 W

    L2
    Area = 4.53318 mm^2
    Peak Dynamic = 0 W
    Subthreshold Leakage = 0.593748 W
    Subthreshold Leakage with power gating = 0.285481 W
    Gate Leakage = 0.015464 W
    Runtime Dynamic = 7.12327e-09 W

*****************************************************************************************
Core:
      Area = 25.6888 mm^2
      Peak Dynamic = 6.01943 W
      Subthreshold Leakage = 3.22341 W
      Subthreshold Leakage with power gating = 1.36419 W
      Gate Leakage = 0.280015 W
      Runtime Dynamic = 0.315187 W

      Instruction Fetch Unit:
        Area = 5.98523 mm^2
        Peak Dynamic = 3.85408 W
        Subthreshold Leakage = 0.703301 W
        Subthreshold Leakage with power gating = 0.305608 W
        Gate Leakage = 0.0682541 W
        Runtime Dynamic = 0.103971 W

          Instruction Cache:
            Area = 3.14635 mm^2
            Peak Dynamic = 1.37887 W
            Subthreshold Leakage = 0.261248 W
            Subthreshold Leakage with power gating = 0.1284 W
            Gate Leakage = 0.029931 W
            Runtime Dynamic = 0.000132933 W

          Branch Target Buffer:
            Area = 0.64954 mm^2
            Peak Dynamic = 0.177867 W
            Subthreshold Leakage = 0.057776 W
            Subthreshold Leakage with power gating = 0.030989 W
            Gate Leakage = 0.00272758 W
            Runtime Dynamic = 0.00635786 W

          Branch Predictor:
            Area = 0.138516 mm^2
            Peak Dynamic = 0.0597838 W
            Subthreshold Leakage = 0.014215 W
            Subthreshold Leakage with power gating = 0.0073517 W
            Gate Leakage = 0.000757657 W
            Runtime Dynamic = 0.00217636 W

              Global Predictor:
                Area = 0.0435221 mm^2
                Peak Dynamic = 0.0168831 W
                Subthreshold Leakage = 0.00540773 W
                Subthreshold Leakage with power gating = 0.00279284 W
                Gate Leakage = 0.000278362 W
                Runtime Dynamic = 0.000646752 W

              Local Predictor:
              L1_Local Predictor:
                Area = 0.0257064 mm^2
                Peak Dynamic = 0.0142575 W
                Subthreshold Leakage = 0.00273579 W
                Subthreshold Leakage with power gating = 0.00141387 W
                Gate Leakage = 0.000154548 W
                Runtime Dynamic = 0.000558929 W

              L2_Local Predictor:
                Area = 0.0151917 mm^2
                Peak Dynamic = 0.00527447 W
                Subthreshold Leakage = 0.00129084 W
                Subthreshold Leakage with power gating = 0.000681231 W
                Gate Leakage = 8.00196e-05 W
                Runtime Dynamic = 0.000213969 W

              Chooser:
                Area = 0.0435221 mm^2
                Peak Dynamic = 0.0168831 W
                Subthreshold Leakage = 0.00540773 W
                Subthreshold Leakage with power gating = 0.00279284 W
                Gate Leakage = 0.000278362 W
                Runtime Dynamic = 0.000646752 W

              RAS:
                Area = 0.0105732 mm^2
                Peak Dynamic = 0.0117602 W
                Subthreshold Leakage = 0.000663763 W
                Subthreshold Leakage with power gating = 0.000352154 W
                Gate Leakage = 4.63858e-05 W
                Runtime Dynamic = 0.000323926 W

          Instruction Buffer:
            Area = 0.0226323 mm^2
            Peak Dynamic = 0.606827 W
            Subthreshold Leakage = 0.00108112 W
            Subthreshold Leakage with power gating = 0.000499461 W
            Gate Leakage = 6.83558e-05 W
            Runtime Dynamic = 0.0216775 W

          Instruction Decoder:
            Area = 1.85799 mm^2
            Peak Dynamic = 1.37404 W
            Subthreshold Leakage = 0.31529 W
            Subthreshold Leakage with power gating = 0.118234 W
            Gate Leakage = 0.0222493 W
            Runtime Dynamic = 0.0736264 W

      Load Store Unit:
        Area = 8.05439 mm^2
[...]
            Gate Leakage = 0 W
            Runtime Dynamic = 0 W

          Integer ALUs (Count: 6 ):
            Area = 0.47087 mm^2
            Peak Dynamic = 0.0662926 W
            Subthreshold Leakage = 0.286303 W
            Subthreshold Leakage with power gating = 0.107364 W
            Gate Leakage = 0.0265291 W
            Runtime Dynamic = 0.0530423 W

          Floating Point Units (FPUs) (Count: 2 ):
            Area = 4.6585 mm^2
            Peak Dynamic = 0.0793593 W
            Subthreshold Leakage = 0.708126 W
            Subthreshold Leakage with power gating = 0.265547 W
            Gate Leakage = 0.0656156 W
            Runtime Dynamic = 0.0396791 W

          Complex ALUs (Mul/Div) (Count: 1 ):
            Area = 0.235435 mm^2
            Peak Dynamic = 0 W
            Subthreshold Leakage = 0.143151 W
            Subthreshold Leakage with power gating = 0.0536818 W
            Gate Leakage = 0.0132646 W
            Runtime Dynamic = 0 W

          Results Broadcast Bus:
            Area Overhead = 0.0352036 mm^2
            Peak Dynamic = 0.0254829 W
            Subthreshold Leakage = 0.0535057 W
            Subthreshold Leakage with power gating = 0.0200646 W
            Gate Leakage = 0.00495789 W
            Runtime Dynamic = 0.0921396 W

    L2
    Area = 4.53318 mm^2
    Peak Dynamic = 0 W
    Subthreshold Leakage = 0.593748 W
    Subthreshold Leakage with power gating = 0.285481 W
    Gate Leakage = 0.015464 W
    Runtime Dynamic = 7.12327e-09 W

*****************************************************************************************
Core:
      Area = 25.6888 mm^2
      Peak Dynamic = 6.01943 W
      Subthreshold Leakage = 3.22341 W
      Subthreshold Leakage with power gating = 1.36419 W
      Gate Leakage = 0.280015 W
      Runtime Dynamic = 0.315186 W

      Instruction Fetch Unit:
        Area = 5.98523 mm^2
        Peak Dynamic = 3.85408 W
        Subthreshold Leakage = 0.703301 W
        Subthreshold Leakage with power gating = 0.305608 W
        Gate Leakage = 0.0682541 W
        Runtime Dynamic = 0.103971 W

          Instruction Cache:
            Area = 3.14635 mm^2
            Peak Dynamic = 1.37887 W
            Subthreshold Leakage = 0.261248 W
            Subthreshold Leakage with power gating = 0.1284 W
            Gate Leakage = 0.029931 W
            Runtime Dynamic = 0.000132812 W

          Branch Target Buffer:
            Area = 0.64954 mm^2
            Peak Dynamic = 0.177867 W
            Subthreshold Leakage = 0.057776 W
            Subthreshold Leakage with power gating = 0.030989 W
            Gate Leakage = 0.00272758 W
            Runtime Dynamic = 0.00635785 W

          Branch Predictor:
            Area = 0.138516 mm^2
            Peak Dynamic = 0.0597838 W
            Subthreshold Leakage = 0.014215 W
            Subthreshold Leakage with power gating = 0.0073517 W
            Gate Leakage = 0.000757657 W
            Runtime Dynamic = 0.00217635 W

              Global Predictor:
                Area = 0.0435221 mm^2
                Peak Dynamic = 0.0168831 W
                Subthreshold Leakage = 0.00540773 W
                Subthreshold Leakage with power gating = 0.00279284 W
                Gate Leakage = 0.000278362 W
                Runtime Dynamic = 0.00064675 W

              Local Predictor:
              L1_Local Predictor:
                Area = 0.0257064 mm^2
                Peak Dynamic = 0.0142575 W
                Subthreshold Leakage = 0.00273579 W
                Subthreshold Leakage with power gating = 0.00141387 W
                Gate Leakage = 0.000154548 W
                Runtime Dynamic = 0.000558928 W

              L2_Local Predictor:
                Area = 0.0151917 mm^2
                Peak Dynamic = 0.00527447 W
                Subthreshold Leakage = 0.00129084 W
                Subthreshold Leakage with power gating = 0.000681231 W
                Gate Leakage = 8.00196e-05 W
                Runtime Dynamic = 0.000213969 W

              Chooser:
                Area = 0.0435221 mm^2
                Peak Dynamic = 0.0168831 W
                Subthreshold Leakage = 0.00540773 W
                Subthreshold Leakage with power gating = 0.00279284 W
                Gate Leakage = 0.000278362 W
                Runtime Dynamic = 0.00064675 W

              RAS:
                Area = 0.0105732 mm^2
                Peak Dynamic = 0.0117602 W
                Subthreshold Leakage = 0.000663763 W
                Subthreshold Leakage with power gating = 0.000352154 W
                Gate Leakage = 4.63858e-05 W
                Runtime Dynamic = 0.000323926 W

          Instruction Buffer:
            Area = 0.0226323 mm^2
            Peak Dynamic = 0.606827 W
            Subthreshold Leakage = 0.00108112 W
            Subthreshold Leakage with power gating = 0.000499461 W
            Gate Leakage = 6.83558e-05 W
            Runtime Dynamic = 0.0216775 W

          Instruction Decoder:
            Area = 1.85799 mm^2
            Peak Dynamic = 1.37404 W
            Subthreshold Leakage = 0.31529 W
            Subthreshold Leakage with power gating = 0.118234 W
            Gate Leakage = 0.0222493 W
            Runtime Dynamic = 0.0736264 W

      Load Store Unit:
        Area = 8.05439 mm^2
        Peak Dynamic = 1.23848 W
        Subthreshold Leakage = 0.453895 W
        Subthreshold Leakage with power gating = 0.212713 W
        Gate Leakage = 0.0437459 W
        Runtime Dynamic = 0.00070257 W

          Data Cache:
            Area = 6.84535 mm^2
            Peak Dynamic = 1.23822 W
            Subthreshold Leakage = 0.375602 W
            Subthreshold Leakage with power gating = 0.178556 W
            Gate Leakage = 0.0279261 W
            Runtime Dynamic = 0.000527355 W

          Load/Store Queue:
            Area = 0.322079 mm^2
            Peak Dynamic = 8.76263e-05 W
            Subthreshold Leakage = 0.0246015 W
            Subthreshold Leakage with power gating = 0.0140229 W
            Gate Leakage = 0.00329971 W
            Runtime Dynamic = 0.000175215 W

      Memory Management Unit:
        Area = 0.559739 mm^2
        Peak Dynamic = 0.684653 W
        Subthreshold Leakage = 0.0942255 W
        Subthreshold Leakage with power gating = 0.0432387 W
        Gate Leakage = 0.0173421 W
        Runtime Dynamic = 5.29048e-05 W

          Itlb:
            Area = 0.301552 mm^2
            Peak Dynamic = 0.0857333 W
            Subthreshold Leakage = 0.0294516 W
            Subthreshold Leakage with power gating = 0.0167874 W
            Gate Leakage = 0.00393464 W
            Runtime Dynamic = 2.18126e-05 W

          Dtlb:
            Area = 0.0879726 mm^2
            Peak Dynamic = 3.10989e-05 W
            Subthreshold Leakage = 0.0110828 W
            Subthreshold Leakage with power gating = 0.00631717 W
            Gate Leakage = 0.00088729 W
            Runtime Dynamic = 3.10922e-05 W

      Execution Unit:
        Area = 6.14103 mm^2
        Peak Dynamic = 0.242222 W
        Subthreshold Leakage = 1.25199 W
        Subthreshold Leakage with power gating = 0.469807 W
        Gate Leakage = 0.12351 W
        Runtime Dynamic = 0.210459 W

          Register Files:
            Area = 0.570804 mm^2
            Peak Dynamic = 0.0354216 W
            Subthreshold Leakage = 0.00721681 W
            Subthreshold Leakage with power gating = 0.00301552 W
            Gate Leakage = 0.000622708 W
            Runtime Dynamic = 0.0255986 W

              Integer RF:
                Area = 0.362673 mm^2
                Peak Dynamic = 0.0183812 W
                Subthreshold Leakage = 0.00437174 W
                Subthreshold Leakage with power gating = 0.00175585 W
                Gate Leakage = 0.00038992 W
                Runtime Dynamic = 0.0225495 W

              Floating Point RF:
                Area = 0.208131 mm^2
                Peak Dynamic = 0.0170404 W
                Subthreshold Leakage = 0.00284507 W
                Subthreshold Leakage with power gating = 0.00125967 W
                Gate Leakage = 0.000232788 W
                Runtime Dynamic = 0.00304904 W

          Instruction Scheduler:
            Area = 0 mm^2
            Peak Dynamic = 0 W
            Subthreshold Leakage = 0 W
            Subthreshold Leakage with power gating = -nan W
            Gate Leakage = 0 W
            Runtime Dynamic = 0 W

          Integer ALUs (Count: 6 ):
            Area = 0.47087 mm^2
            Peak Dynamic = 0.0662926 W
            Subthreshold Leakage = 0.286303 W
            Subthreshold Leakage with power gating = 0.107364 W
            Gate Leakage = 0.0265291 W
            Runtime Dynamic = 0.0530422 W

          Floating Point Units (FPUs) (Count: 2 ):
            Area = 4.6585 mm^2
            Peak Dynamic = 0.0793593 W
            Subthreshold Leakage = 0.708126 W
            Subthreshold Leakage with power gating = 0.265547 W
            Gate Leakage = 0.0656156 W
            Runtime Dynamic = 0.0396791 W

          Complex ALUs (Mul/Div) (Count: 1 ):
            Area = 0.235435 mm^2
            Peak Dynamic = 0 W
            Subthreshold Leakage = 0.143151 W
            Subthreshold Leakage with power gating = 0.0536818 W
            Gate Leakage = 0.0132646 W
            Runtime Dynamic = 0 W

          Results Broadcast Bus:
            Area Overhead = 0.0352036 mm^2
            Peak Dynamic = 0.0254829 W
            Subthreshold Leakage = 0.0535057 W
            Subthreshold Leakage with power gating = 0.0200646 W
            Gate Leakage = 0.00495789 W
            Runtime Dynamic = 0.0921394 W

    L2
    Area = 4.53318 mm^2
    Peak Dynamic = 0 W
    Subthreshold Leakage = 0.593748 W
    Subthreshold Leakage with power gating = 0.285481 W
    Gate Leakage = 0.015464 W
    Runtime Dynamic = 7.12327e-09 W

*****************************************************************************************
Core:
      Area = 25.6888 mm^2
      Peak Dynamic = 6.01943 W
      Subthreshold Leakage = 3.22341 W
      Subthreshold Leakage with power gating = 1.36419 W
      Gate Leakage = 0.280015 W
      Runtime Dynamic = 0.315185 W

      Instruction Fetch Unit:
        Area = 5.98523 mm^2
        Peak Dynamic = 3.85408 W
        Subthreshold Leakage = 0.703301 W
        Subthreshold Leakage with power gating = 0.305608 W
        Gate Leakage = 0.0682541 W
        Runtime Dynamic = 0.103971 W

          Instruction Cache:
            Area = 3.14635 mm^2
            Peak Dynamic = 1.37887 W
            Subthreshold Leakage = 0.261248 W
            Subthreshold Leakage with power gating = 0.1284 W
            Gate Leakage = 0.029931 W
            Runtime Dynamic = 0.000132759 W

          Branch Target Buffer:
            Area = 0.64954 mm^2
            Peak Dynamic = 0.177867 W
            Subthreshold Leakage = 0.057776 W
            Subthreshold Leakage with power gating = 0.030989 W
            Gate Leakage = 0.00272758 W
            Runtime Dynamic = 0.00635784 W

          Branch Predictor:
            Area = 0.138516 mm^2
            Peak Dynamic = 0.0597838 W
            Subthreshold Leakage = 0.014215 W
            Subthreshold Leakage with power gating = 0.0073517 W
            Gate Leakage = 0.000757657 W
            Runtime Dynamic = 0.00217635 W

              Global Predictor:
                Area = 0.0435221 mm^2
                Peak Dynamic = 0.0168831 W
                Subthreshold Leakage = 0.00540773 W
                Subthreshold Leakage with power gating = 0.00279284 W
                Gate Leakage = 0.000278362 W
                Runtime Dynamic = 0.00064675 W

              Local Predictor:
              L1_Local Predictor:
                Area = 0.0257064 mm^2
                Peak Dynamic = 0.0142575 W
                Subthreshold Leakage = 0.00273579 W
                Subthreshold Leakage with power gating = 0.00141387 W
                Gate Leakage = 0.000154548 W
                Runtime Dynamic = 0.000558928 W

              L2_Local Predictor:
                Area = 0.0151917 mm^2
                Peak Dynamic = 0.00527447 W
                Subthreshold Leakage = 0.00129084 W
                Subthreshold Leakage with power gating = 0.000681231 W
                Gate Leakage = 8.00196e-05 W
                Runtime Dynamic = 0.000213969 W

              Chooser:
                Area = 0.0435221 mm^2
                Peak Dynamic = 0.0168831 W
                Subthreshold Leakage = 0.00540773 W
                Subthreshold Leakage with power gating = 0.00279284 W
                Gate Leakage = 0.000278362 W
                Runtime Dynamic = 0.00064675 W

              RAS:
                Area = 0.0105732 mm^2
                Peak Dynamic = 0.0117602 W
                Subthreshold Leakage = 0.000663763 W
                Subthreshold Leakage with power gating = 0.000352154 W
                Gate Leakage = 4.63858e-05 W
                Runtime Dynamic = 0.000323926 W

          Instruction Buffer:
            Area = 0.0226323 mm^2
            Peak Dynamic = 0.606827 W
            Subthreshold Leakage = 0.00108112 W
            Subthreshold Leakage with power gating = 0.000499461 W
            Gate Leakage = 6.83558e-05 W
            Runtime Dynamic = 0.0216774 W

          Instruction Decoder:
            Area = 1.85799 mm^2
            Peak Dynamic = 1.37404 W
            Subthreshold Leakage = 0.31529 W
            Subthreshold Leakage with power gating = 0.118234 W
            Gate Leakage = 0.0222493 W
            Runtime Dynamic = 0.0736263 W

      Load Store Unit:
        Area = 8.05439 mm^2
        Peak Dynamic = 1.23848 W
        Subthreshold Leakage = 0.453895 W
        Subthreshold Leakage with power gating = 0.212713 W
        Gate Leakage = 0.0437459 W
        Runtime Dynamic = 0.000702272 W

          Data Cache:
            Area = 6.84535 mm^2
            Peak Dynamic = 1.23822 W
            Subthreshold Leakage = 0.375602 W
            Subthreshold Leakage with power gating = 0.178556 W
            Gate Leakage = 0.0279261 W
            Runtime Dynamic = 0.000527131 W

          Load/Store Queue:
            Area = 0.322079 mm^2
            Peak Dynamic = 8.76263e-05 W
            Subthreshold Leakage = 0.0246015 W
            Subthreshold Leakage with power gating = 0.0140229 W
            Gate Leakage = 0.00329971 W
            Runtime Dynamic = 0.000175141 W

      Memory Management Unit:
        Area = 0.559739 mm^2
        Peak Dynamic = 0.684653 W
        Subthreshold Leakage = 0.0942255 W
        Subthreshold Leakage with power gating = 0.0432387 W
        Gate Leakage = 0.0173421 W
        Runtime Dynamic = 5.28831e-05 W

          Itlb:
            Area = 0.301552 mm^2
            Peak Dynamic = 0.0857333 W
            Subthreshold Leakage = 0.0294516 W
            Subthreshold Leakage with power gating = 0.0167874 W
            Gate Leakage = 0.00393464 W
            Runtime Dynamic = 2.1804e-05 W

          Dtlb:
            Area = 0.0879726 mm^2
            Peak Dynamic = 3.10989e-05 W
            Subthreshold Leakage = 0.0110828 W
            Subthreshold Leakage with power gating = 0.00631717 W
            Gate Leakage = 0.00088729 W
            Runtime Dynamic = 3.10791e-05 W

      Execution Unit:
        Area = 6.14103 mm^2
        Peak Dynamic = 0.242222 W
        Subthreshold Leakage = 1.25199 W
        Subthreshold Leakage with power gating = 0.469807 W
        Gate Leakage = 0.12351 W
        Runtime Dynamic = 0.210459 W

          Register Files:
            Area = 0.570804 mm^2
            Peak Dynamic = 0.0354216 W
            Subthreshold Leakage = 0.00721681 W
            Subthreshold Leakage with power gating = 0.00301552 W
            Gate Leakage = 0.000622708 W
            Runtime Dynamic = 0.0255986 W

              Integer RF:
                Area = 0.362673 mm^2
                Peak Dynamic = 0.0183812 W
                Subthreshold Leakage = 0.00437174 W
                Subthreshold Leakage with power gating = 0.00175585 W
                Gate Leakage = 0.00038992 W
                Runtime Dynamic = 0.0225495 W

              Floating Point RF:
                Area = 0.208131 mm^2
                Peak Dynamic = 0.0170404 W
                Subthreshold Leakage = 0.00284507 W
                Subthreshold Leakage with power gating = 0.00125967 W
                Gate Leakage = 0.000232788 W
                Runtime Dynamic = 0.00304904 W

          Instruction Scheduler:
            Area = 0 mm^2
            Peak Dynamic = 0 W
            Subthreshold Leakage = 0 W
            Subthreshold Leakage with power gating = -nan W
            Gate Leakage = 0 W
            Runtime Dynamic = 0 W

          Integer ALUs (Count: 6 ):
            Area = 0.47087 mm^2
            Peak Dynamic = 0.0662926 W
            Subthreshold Leakage = 0.286303 W
            Subthreshold Leakage with power gating = 0.107364 W
            Gate Leakage = 0.0265291 W
            Runtime Dynamic = 0.0530422 W

          Floating Point Units (FPUs) (Count: 2 ):
            Area = 4.6585 mm^2
            Peak Dynamic = 0.0793593 W
            Subthreshold Leakage = 0.708126 W
            Subthreshold Leakage with power gating = 0.265547 W
            Gate Leakage = 0.0656156 W
            Runtime Dynamic = 0.0396791 W

          Complex ALUs (Mul/Div) (Count: 1 ):
            Area = 0.235435 mm^2
            Peak Dynamic = 0 W
            Subthreshold Leakage = 0.143151 W
            Subthreshold Leakage with power gating = 0.0536818 W
            Gate Leakage = 0.0132646 W
            Runtime Dynamic = 0 W

          Results Broadcast Bus:
            Area Overhead = 0.0352036 mm^2
            Peak Dynamic = 0.0254829 W
            Subthreshold Leakage = 0.0535057 W
            Subthreshold Leakage with power gating = 0.0200646 W
            Gate Leakage = 0.00495789 W
            Runtime Dynamic = 0.0921394 W

    L2
    Area = 4.53318 mm^2
    Peak Dynamic = 0 W
    Subthreshold Leakage = 0.593748 W
    Subthreshold Leakage with power gating = 0.285481 W
    Gate Leakage = 0.015464 W
    Runtime Dynamic = 7.12327e-09 W

*****************************************************************************************
      L3
      Area = 61.9075 mm^2
      Peak Dynamic = 0 W
      Subthreshold Leakage = 6.80085 W
      Subthreshold Leakage with power gating = 3.32364 W
      Gate Leakage = 0.0484137 W
      Runtime Dynamic = 7.14513e-09 W

*****************************************************************************************
      L3
      Area = 61.9075 mm^2
      Peak Dynamic = 0 W
      Subthreshold Leakage = 6.80085 W
      Subthreshold Leakage with power gating = 3.32364 W
      Gate Leakage = 0.0484137 W
      Runtime Dynamic = 7.14513e-09 W

*****************************************************************************************
      L3
      Area = 61.9075 mm^2
      Peak Dynamic = 0 W
      Subthreshold Leakage = 6.80085 W
      Subthreshold Leakage with power gating = 3.32364 W
      Gate Leakage = 0.0484137 W
      Runtime Dynamic = 7.14513e-09 W

*****************************************************************************************
      L3
      Area = 61.9075 mm^2
      Peak Dynamic = 0 W
      Subthreshold Leakage = 6.80085 W
      Subthreshold Leakage with power gating = 3.32364 W
      Gate Leakage = 0.0484137 W
      Runtime Dynamic = 7.14513e-09 W

*****************************************************************************************
BUSES
      Area = 4.65384 mm^2
      Peak Dynamic = 0 W
      Subthreshold Leakage = 0.130192 W
      Subthreshold Leakage with power gating = 0.0488219 W
      Gate Leakage = 0.0124849 W
      Runtime Dynamic = 0 W

      Bus: 
        Area = 4.65384 mm^2
        Peak Dynamic = 0 W
        Subthreshold Leakage = 0.130192 W
        Subthreshold Leakage with power gating = 0.0488219 W
        Gate Leakage = 0.0124849 W
        Runtime Dynamic = 0 W

*****************************************************************************************
