McPAT (version 1.0 of Aug, 2013) is computing the target processor...
 

McPAT (version 1.0 of Aug, 2013) results  (current print level is 5)
*****************************************************************************************
  Technology 45 nm
  Using Long Channel Devices When Appropriate
  Interconnect metal projection= aggressive interconnect technology projection
  Core clock Rate(MHz) 2660

*****************************************************************************************
Processor: 
  Area = 709.156 mm^2
  Peak Power = 340.127 W
  Total Leakage = 119.835 W
  Peak Dynamic = 220.292 W
  Subthreshold Leakage = 114.406 W
  Subthreshold Leakage with power gating = 50.8535 W
  Gate Leakage = 5.42905 W
  Runtime Dynamic = 27.2125 W

  Total Cores: 14 cores 
  Device Type= ITRS high performance device type
    Area = 456.514 mm^2
    Peak Dynamic = 220.292 W
    Subthreshold Leakage = 87.0628 W
    Subthreshold Leakage with power gating = 36.1635 W
    Gate Leakage = 5.22195 W
    Runtime Dynamic = 27.2125 W

  Total L3s: 
  Device Type= ITRS high performance device type
    Area = 247.63 mm^2
    Peak Dynamic = 0 W
    Subthreshold Leakage = 27.2034 W
    Subthreshold Leakage with power gating = 13.2946 W
    Gate Leakage = 0.193655 W
    Runtime Dynamic = 1.63264e-05 W

  Total NoCs (Network/Bus): 
  Device Type= ITRS high performance device type
    Area = 5.0113 mm^2
    Peak Dynamic = 0 W
    Subthreshold Leakage = 0.140192 W
    Subthreshold Leakage with power gating = 0.0525718 W
    Gate Leakage = 0.0134439 W
    Runtime Dynamic = 0 W

*****************************************************************************************
Core:
      Area = 32.6082 mm^2
      Peak Dynamic = 15.7307 W
      Subthreshold Leakage = 6.21877 W
      Subthreshold Leakage with power gating = 2.58311 W
      Gate Leakage = 0.372997 W
      Runtime Dynamic = 1.94141 W

      Instruction Fetch Unit:
        Area = 5.86007 mm^2
        Peak Dynamic = 3.88098 W
        Subthreshold Leakage = 0.932587 W
        Subthreshold Leakage with power gating = 0.408542 W
        Gate Leakage = 0.0590479 W
        Runtime Dynamic = 0.19783 W

          Instruction Cache:
            Area = 3.14635 mm^2
            Peak Dynamic = 1.5844 W
            Subthreshold Leakage = 0.367022 W
            Subthreshold Leakage with power gating = 0.180386 W
            Gate Leakage = 0.029931 W
            Runtime Dynamic = 0.0754949 W

          Branch Target Buffer:
            Area = 0.64954 mm^2
            Peak Dynamic = 0.177867 W
            Subthreshold Leakage = 0.0811682 W
            Subthreshold Leakage with power gating = 0.0435357 W
            Gate Leakage = 0.00272758 W
            Runtime Dynamic = 0.00955703 W

          Branch Predictor:
            Area = 0.138516 mm^2
            Peak Dynamic = 0.0597838 W
            Subthreshold Leakage = 0.0199703 W
            Subthreshold Leakage with power gating = 0.0103282 W
            Gate Leakage = 0.000757657 W
            Runtime Dynamic = 0.00326868 W

              Global Predictor:
                Area = 0.0435221 mm^2
                Peak Dynamic = 0.0168831 W
                Subthreshold Leakage = 0.00759719 W
                Subthreshold Leakage with power gating = 0.0039236 W
                Gate Leakage = 0.000278362 W
                Runtime Dynamic = 0.00100785 W

              Local Predictor:
              L1_Local Predictor:
                Area = 0.0257064 mm^2
                Peak Dynamic = 0.0142575 W
                Subthreshold Leakage = 0.00384344 W
                Subthreshold Leakage with power gating = 0.00198631 W
                Gate Leakage = 0.000154548 W
                Runtime Dynamic = 0.000880811 W

              L2_Local Predictor:
                Area = 0.0151917 mm^2
                Peak Dynamic = 0.00527447 W
                Subthreshold Leakage = 0.00181347 W
                Subthreshold Leakage with power gating = 0.000957045 W
                Gate Leakage = 8.00196e-05 W
                Runtime Dynamic = 0.000342602 W

              Chooser:
                Area = 0.0435221 mm^2
                Peak Dynamic = 0.0168831 W
                Subthreshold Leakage = 0.00759719 W
                Subthreshold Leakage with power gating = 0.0039236 W
                Gate Leakage = 0.000278362 W
                Runtime Dynamic = 0.00100785 W

              RAS:
                Area = 0.0105732 mm^2
                Peak Dynamic = 0.0117602 W
                Subthreshold Leakage = 0.000932505 W
                Subthreshold Leakage with power gating = 0.000494733 W
                Gate Leakage = 4.63858e-05 W
                Runtime Dynamic = 0.000372165 W

          Instruction Buffer:
            Area = 0.0226323 mm^2
            Peak Dynamic = 0.606827 W
            Subthreshold Leakage = 0.00151885 W
            Subthreshold Leakage with power gating = 0.000701682 W
            Gate Leakage = 6.83558e-05 W
            Runtime Dynamic = 0.0249086 W

          Instruction Decoder:
            Area = 1.85799 mm^2
            Peak Dynamic = 1.37404 W
            Subthreshold Leakage = 0.442943 W
            Subthreshold Leakage with power gating = 0.166104 W
            Gate Leakage = 0.0222493 W
            Runtime Dynamic = 0.0846007 W

      Renaming Unit:
        Area = 0.369768 mm^2
        Peak Dynamic = 4.56169 W
        Subthreshold Leakage = 0.070483 W
        Subthreshold Leakage with power gating = 0.0362779 W
        Gate Leakage = 0.00863632 W
        Runtime Dynamic = 0.0552295 W

          Int Front End RAT:
            Area = 0.114751 mm^2
            Peak Dynamic = 0.86945 W
            Subthreshold Leakage = 0.00611897 W
            Subthreshold Leakage with power gating = 0.00348781 W
            Gate Leakage = 0.00038343 W
            Runtime Dynamic = 0.0502868 W

          FP Front End RAT:
            Area = 0.168486 mm^2
            Peak Dynamic = 3.33511 W
            Subthreshold Leakage = 0.0437281 W
            Subthreshold Leakage with power gating = 0.024925 W
            Gate Leakage = 0.00489731 W
            Runtime Dynamic = 0 W

          Free List:
            Area = 0.0414755 mm^2
            Peak Dynamic = 0.0401324 W
            Subthreshold Leakage = 0.000670426 W
            Subthreshold Leakage with power gating = 0.000377987 W
            Gate Leakage = 4.15911e-05 W
            Runtime Dynamic = 0.00494197 W

      Load Store Unit:
        Area = 8.80969 mm^2
        Peak Dynamic = 1.95752 W
        Subthreshold Leakage = 0.591622 W
        Subthreshold Leakage with power gating = 0.283406 W
        Gate Leakage = 0.0351387 W
        Runtime Dynamic = 0.419794 W

          Data Cache:
            Area = 6.84535 mm^2
            Peak Dynamic = 1.86171 W
            Subthreshold Leakage = 0.527675 W
            Subthreshold Leakage with power gating = 0.25085 W
            Gate Leakage = 0.0279261 W
            Runtime Dynamic = 0.299933 W

          LoadQ:
            Area = 0.0836782 mm^2
            Peak Dynamic = 0.020207 W
            Subthreshold Leakage = 0.00941961 W
            Subthreshold Leakage with power gating = 0.00536918 W
            Gate Leakage = 0.00059896 W
            Runtime Dynamic = 0.0202069 W

          StoreQ:
            Area = 0.322079 mm^2
            Peak Dynamic = 0.0498269 W
            Subthreshold Leakage = 0.0345621 W
            Subthreshold Leakage with power gating = 0.0197004 W
            Gate Leakage = 0.00329971 W
            Runtime Dynamic = 0.0996536 W

      Memory Management Unit:
        Area = 0.434579 mm^2
        Peak Dynamic = 0.287582 W
        Subthreshold Leakage = 0.0769113 W
        Subthreshold Leakage with power gating = 0.0399462 W
        Gate Leakage = 0.00813591 W
        Runtime Dynamic = 0.0300831 W

          Itlb:
            Area = 0.301552 mm^2
            Peak Dynamic = 0.0985119 W
            Subthreshold Leakage = 0.0413758 W
            Subthreshold Leakage with power gating = 0.0235842 W
            Gate Leakage = 0.00393464 W
            Runtime Dynamic = 0.0123987 W

          Dtlb:
            Area = 0.0879726 mm^2
            Peak Dynamic = 0.0176837 W
            Subthreshold Leakage = 0.0155699 W
            Subthreshold Leakage with power gating = 0.00887485 W
            Gate Leakage = 0.00088729 W
            Runtime Dynamic = 0.0176837 W

      Execution Unit:
        Area = 8.2042 mm^2
        Peak Dynamic = 5.0429 W
        Subthreshold Leakage = 1.83518 W
        Subthreshold Leakage with power gating = 0.709678 W
        Gate Leakage = 0.122718 W
        Runtime Dynamic = 1.23847 W

          Register Files:
            Area = 0.570804 mm^2
            Peak Dynamic = 0.0253347 W
            Subthreshold Leakage = 0.0101387 W
            Subthreshold Leakage with power gating = 0.00423643 W
            Gate Leakage = 0.000622708 W
            Runtime Dynamic = 0.029414 W

              Integer RF:
                Area = 0.362673 mm^2
                Peak Dynamic = 0.0253347 W
                Subthreshold Leakage = 0.00614175 W
                Subthreshold Leakage with power gating = 0.00246675 W
                Gate Leakage = 0.00038992 W
                Runtime Dynamic = 0.0259106 W

              Floating Point RF:
                Area = 0.208131 mm^2
                Peak Dynamic = 0 W
                Subthreshold Leakage = 0.00399698 W
                Subthreshold Leakage with power gating = 0.00176968 W
                Gate Leakage = 0.000232788 W
                Runtime Dynamic = 0.00350341 W

          Instruction Scheduler:
            Area = 2.17927 mm^2
            Peak Dynamic = 4.84781 W
            Subthreshold Leakage = 0.114878 W
            Subthreshold Leakage with power gating = 0.0641291 W
            Gate Leakage = 0.00730101 W
            Runtime Dynamic = 0.366708 W

              Instruction Window:
                Area = 1.00996 mm^2
                Peak Dynamic = 2.07911 W
                Subthreshold Leakage = 0.0800117 W
                Subthreshold Leakage with power gating = 0.0455351 W
                Gate Leakage = 0.00529112 W
                Runtime Dynamic = 0.167357 W

              FP Instruction Window:
                Area = 0.328073 mm^2
                Peak Dynamic = 1.20978 W
                Subthreshold Leakage = 0.017004 W
                Subthreshold Leakage with power gating = 0.00962066 W
                Gate Leakage = 0.00115349 W
                Runtime Dynamic = 0.0966466 W

              ROB:
                Area = 0.841232 mm^2
                Peak Dynamic = 1.55892 W
                Subthreshold Leakage = 0.0178624 W
                Subthreshold Leakage with power gating = 0.00897339 W
                Gate Leakage = 0.000856399 W
                Runtime Dynamic = 0.102704 W

          Integer ALUs (Count: 6 ):
            Area = 0.47087 mm^2
            Peak Dynamic = 0.0955306 W
            Subthreshold Leakage = 0.40222 W
            Subthreshold Leakage with power gating = 0.150833 W
            Gate Leakage = 0.0265291 W
            Runtime Dynamic = 0.179178 W

          Floating Point Units (FPUs) (Count: 2 ):
            Area = 4.6585 mm^2
            Peak Dynamic = 0 W
            Subthreshold Leakage = 0.994829 W
            Subthreshold Leakage with power gating = 0.373061 W
            Gate Leakage = 0.0656156 W
            Runtime Dynamic = 0.304033 W

          Complex ALUs (Mul/Div) (Count: 1 ):
            Area = 0.235435 mm^2
            Peak Dynamic = 0 W
            Subthreshold Leakage = 0.20111 W
            Subthreshold Leakage with power gating = 0.0754163 W
            Gate Leakage = 0.0132646 W
            Runtime Dynamic = 0.202689 W

          Results Broadcast Bus:
            Area Overhead = 0.0442632 mm^2
            Peak Dynamic = 0.061219 W
            Subthreshold Leakage = 0.0920413 W
            Subthreshold Leakage with power gating = 0.0345155 W
            Gate Leakage = 0.00607074 W
            Runtime Dynamic = 0.156448 W

    L2
    Area = 4.53318 mm^2
    Peak Dynamic = 0 W
    Subthreshold Leakage = 0.834142 W
    Subthreshold Leakage with power gating = 0.401066 W
    Gate Leakage = 0.015464 W
    Runtime Dynamic = 4.06911e-06 W

*****************************************************************************************
Core:
      Area = 32.6082 mm^2
      Peak Dynamic = 15.7284 W
      Subthreshold Leakage = 6.21877 W
      Subthreshold Leakage with power gating = 2.58311 W
      Gate Leakage = 0.372997 W
      Runtime Dynamic = 1.94026 W

      Instruction Fetch Unit:
        Area = 5.86007 mm^2
        Peak Dynamic = 3.87957 W
        Subthreshold Leakage = 0.932587 W
        Subthreshold Leakage with power gating = 0.408542 W
        Gate Leakage = 0.0590479 W
        Runtime Dynamic = 0.197673 W

          Instruction Cache:
            Area = 3.14635 mm^2
            Peak Dynamic = 1.58305 W
            Subthreshold Leakage = 0.367022 W
            Subthreshold Leakage with power gating = 0.180386 W
            Gate Leakage = 0.029931 W
            Runtime Dynamic = 0.0754402 W

          Branch Target Buffer:
            Area = 0.64954 mm^2
            Peak Dynamic = 0.177867 W
            Subthreshold Leakage = 0.0811682 W
            Subthreshold Leakage with power gating = 0.0435357 W
            Gate Leakage = 0.00272758 W
            Runtime Dynamic = 0.00955051 W

          Branch Predictor:
            Area = 0.138516 mm^2
            Peak Dynamic = 0.0597838 W
            Subthreshold Leakage = 0.0199703 W
            Subthreshold Leakage with power gating = 0.0103282 W
            Gate Leakage = 0.000757657 W
            Runtime Dynamic = 0.00326609 W

              Global Predictor:
                Area = 0.0435221 mm^2
                Peak Dynamic = 0.0168831 W
                Subthreshold Leakage = 0.00759719 W
                Subthreshold Leakage with power gating = 0.0039236 W
                Gate Leakage = 0.000278362 W
                Runtime Dynamic = 0.00100707 W

              Local Predictor:
              L1_Local Predictor:
                Area = 0.0257064 mm^2
                Peak Dynamic = 0.0142575 W
                Subthreshold Leakage = 0.00384344 W
                Subthreshold Leakage with power gating = 0.00198631 W
                Gate Leakage = 0.000154548 W
                Runtime Dynamic = 0.000880098 W

              L2_Local Predictor:
                Area = 0.0151917 mm^2
                Peak Dynamic = 0.00527447 W
                Subthreshold Leakage = 0.00181347 W
                Subthreshold Leakage with power gating = 0.000957045 W
                Gate Leakage = 8.00196e-05 W
                Runtime Dynamic = 0.00034231 W

              Chooser:
                Area = 0.0435221 mm^2
                Peak Dynamic = 0.0168831 W
                Subthreshold Leakage = 0.00759719 W
                Subthreshold Leakage with power gating = 0.0039236 W
                Gate Leakage = 0.000278362 W
                Runtime Dynamic = 0.00100707 W

              RAS:
                Area = 0.0105732 mm^2
                Peak Dynamic = 0.0117602 W
                Subthreshold Leakage = 0.000932505 W
                Subthreshold Leakage with power gating = 0.000494733 W
                Gate Leakage = 4.63858e-05 W
                Runtime Dynamic = 0.000371857 W

          Instruction Buffer:
            Area = 0.0226323 mm^2
            Peak Dynamic = 0.606827 W
            Subthreshold Leakage = 0.00151885 W
            Subthreshold Leakage with power gating = 0.000701682 W
            Gate Leakage = 6.83558e-05 W
            Runtime Dynamic = 0.0248873 W

          Instruction Decoder:
            Area = 1.85799 mm^2
            Peak Dynamic = 1.37404 W
            Subthreshold Leakage = 0.442943 W
            Subthreshold Leakage with power gating = 0.166104 W
            Gate Leakage = 0.0222493 W
            Runtime Dynamic = 0.0845286 W

      Renaming Unit:
        Area = 0.369768 mm^2
        Peak Dynamic = 4.56169 W
        Subthreshold Leakage = 0.070483 W
        Subthreshold Leakage with power gating = 0.0362779 W
        Gate Leakage = 0.00863632 W
        Runtime Dynamic = 0.0551819 W

          Int Front End RAT:
            Area = 0.114751 mm^2
            Peak Dynamic = 0.86945 W
            Subthreshold Leakage = 0.00611897 W
            Subthreshold Leakage with power gating = 0.00348781 W
            Gate Leakage = 0.00038343 W
            Runtime Dynamic = 0.0502435 W

          FP Front End RAT:
            Area = 0.168486 mm^2
            Peak Dynamic = 3.33511 W
            Subthreshold Leakage = 0.0437281 W
            Subthreshold Leakage with power gating = 0.024925 W
            Gate Leakage = 0.00489731 W
            Runtime Dynamic = 0 W

          Free List:
            Area = 0.0414755 mm^2
            Peak Dynamic = 0.0401324 W
            Subthreshold Leakage = 0.000670426 W
            Subthreshold Leakage with power gating = 0.000377987 W
            Gate Leakage = 4.15911e-05 W
            Runtime Dynamic = 0.00493776 W

      Load Store Unit:
        Area = 8.80969 mm^2
        Peak Dynamic = 1.95694 W
        Subthreshold Leakage = 0.591622 W
        Subthreshold Leakage with power gating = 0.283406 W
        Gate Leakage = 0.0351387 W
        Runtime Dynamic = 0.419458 W

          Data Cache:
            Area = 6.84535 mm^2
            Peak Dynamic = 1.86121 W
            Subthreshold Leakage = 0.527675 W
            Subthreshold Leakage with power gating = 0.25085 W
            Gate Leakage = 0.0279261 W
            Runtime Dynamic = 0.299693 W

          LoadQ:
            Area = 0.0836782 mm^2
            Peak Dynamic = 0.0201908 W
            Subthreshold Leakage = 0.00941961 W
            Subthreshold Leakage with power gating = 0.00536918 W
            Gate Leakage = 0.00059896 W
            Runtime Dynamic = 0.0201907 W

          StoreQ:
            Area = 0.322079 mm^2
            Peak Dynamic = 0.0497871 W
            Subthreshold Leakage = 0.0345621 W
            Subthreshold Leakage with power gating = 0.0197004 W
            Gate Leakage = 0.00329971 W
            Runtime Dynamic = 0.0995737 W

      Memory Management Unit:
        Area = 0.434579 mm^2
        Peak Dynamic = 0.287474 W
        Subthreshold Leakage = 0.0769113 W
        Subthreshold Leakage with power gating = 0.0399462 W
        Gate Leakage = 0.00813591 W
        Runtime Dynamic = 0.0300599 W

          Itlb:
            Area = 0.301552 mm^2
            Peak Dynamic = 0.0984283 W
            Subthreshold Leakage = 0.0413758 W
            Subthreshold Leakage with power gating = 0.0235842 W
            Gate Leakage = 0.00393464 W
            Runtime Dynamic = 0.0123898 W

          Dtlb:
            Area = 0.0879726 mm^2
            Peak Dynamic = 0.0176696 W
            Subthreshold Leakage = 0.0155699 W
            Subthreshold Leakage with power gating = 0.00887485 W
            Gate Leakage = 0.00088729 W
            Runtime Dynamic = 0.0176695 W

      Execution Unit:
        Area = 8.2042 mm^2
        Peak Dynamic = 5.04274 W
        Subthreshold Leakage = 1.83518 W
        Subthreshold Leakage with power gating = 0.709678 W
        Gate Leakage = 0.122718 W
        Runtime Dynamic = 1.23789 W

          Register Files:
            Area = 0.570804 mm^2
            Peak Dynamic = 0.0253131 W
            Subthreshold Leakage = 0.0101387 W
            Subthreshold Leakage with power gating = 0.00423643 W
            Gate Leakage = 0.000622708 W
            Runtime Dynamic = 0.0293889 W

              Integer RF:
                Area = 0.362673 mm^2
                Peak Dynamic = 0.0253131 W
                Subthreshold Leakage = 0.00614175 W
                Subthreshold Leakage with power gating = 0.00246675 W
                Gate Leakage = 0.00038992 W
                Runtime Dynamic = 0.0258885 W

              Floating Point RF:
                Area = 0.208131 mm^2
                Peak Dynamic = 0 W
                Subthreshold Leakage = 0.00399698 W
                Subthreshold Leakage with power gating = 0.00176968 W
                Gate Leakage = 0.000232788 W
                Runtime Dynamic = 0.0035004 W

          Instruction Scheduler:
            Area = 2.17927 mm^2
            Peak Dynamic = 4.84781 W
            Subthreshold Leakage = 0.114878 W
            Subthreshold Leakage with power gating = 0.0641291 W
            Gate Leakage = 0.00730101 W
            Runtime Dynamic = 0.366385 W

              Instruction Window:
                Area = 1.00996 mm^2
                Peak Dynamic = 2.07911 W
                Subthreshold Leakage = 0.0800117 W
                Subthreshold Leakage with power gating = 0.0455351 W
                Gate Leakage = 0.00529112 W
                Runtime Dynamic = 0.167214 W

              FP Instruction Window:
                Area = 0.328073 mm^2
                Peak Dynamic = 1.20978 W
                Subthreshold Leakage = 0.017004 W
                Subthreshold Leakage with power gating = 0.00962066 W
                Gate Leakage = 0.00115349 W
                Runtime Dynamic = 0.0965638 W

              ROB:
                Area = 0.841232 mm^2
                Peak Dynamic = 1.55892 W
                Subthreshold Leakage = 0.0178624 W
                Subthreshold Leakage with power gating = 0.00897339 W
                Gate Leakage = 0.000856399 W
                Runtime Dynamic = 0.102607 W

          Integer ALUs (Count: 6 ):
            Area = 0.47087 mm^2
            Peak Dynamic = 0.0954492 W
            Subthreshold Leakage = 0.40222 W
            Subthreshold Leakage with power gating = 0.150833 W
            Gate Leakage = 0.0265291 W
            Runtime Dynamic = 0.1791 W

          Floating Point Units (FPUs) (Count: 2 ):
            Area = 4.6585 mm^2
            Peak Dynamic = 0 W
            Subthreshold Leakage = 0.994829 W
            Subthreshold Leakage with power gating = 0.373061 W
            Gate Leakage = 0.0656156 W
            Runtime Dynamic = 0.304033 W

          Complex ALUs (Mul/Div) (Count: 1 ):
            Area = 0.235435 mm^2
            Peak Dynamic = 0 W
            Subthreshold Leakage = 0.20111 W
            Subthreshold Leakage with power gating = 0.0754163 W
            Gate Leakage = 0.0132646 W
            Runtime Dynamic = 0.202689 W

          Results Broadcast Bus:
            Area Overhead = 0.0442632 mm^2
            Peak Dynamic = 0.0611668 W
            Subthreshold Leakage = 0.0920413 W
            Subthreshold Leakage with power gating = 0.0345155 W
            Gate Leakage = 0.00607074 W
            Runtime Dynamic = 0.15629 W

    L2
    Area = 4.53318 mm^2
    Peak Dynamic = 0 W
    Subthreshold Leakage = 0.834142 W
    Subthreshold Leakage with power gating = 0.401066 W
    Gate Leakage = 0.015464 W
    Runtime Dynamic = 4.06911e-06 W

*****************************************************************************************
Core:
      Area = 32.6082 mm^2
      Peak Dynamic = 15.7293 W
      Subthreshold Leakage = 6.21877 W
      Subthreshold Leakage with power gating = 2.58311 W
      Gate Leakage = 0.372997 W
      Runtime Dynamic = 1.9407 W

      Instruction Fetch Unit:
        Area = 5.86007 mm^2
        Peak Dynamic = 3.88002 W
        Subthreshold Leakage = 0.932587 W
        Subthreshold Leakage with power gating = 0.408542 W
        Gate Leakage = 0.0590479 W
        Runtime Dynamic = 0.197707 W

          Instruction Cache:
            Area = 3.14635 mm^2
            Peak Dynamic = 1.58348 W
            Subthreshold Leakage = 0.367022 W
            Subthreshold Leakage with power gating = 0.180386 W
            Gate Leakage = 0.029931 W
            Runtime Dynamic = 0.0754402 W

          Branch Target Buffer:
            Area = 0.64954 mm^2
            Peak Dynamic = 0.177867 W
            Subthreshold Leakage = 0.0811682 W
            Subthreshold Leakage with power gating = 0.0435357 W
            Gate Leakage = 0.00272758 W
            Runtime Dynamic = 0.0095534 W

          Branch Predictor:
            Area = 0.138516 mm^2
            Peak Dynamic = 0.0597838 W
            Subthreshold Leakage = 0.0199703 W
            Subthreshold Leakage with power gating = 0.0103282 W
            Gate Leakage = 0.000757657 W
            Runtime Dynamic = 0.00326714 W

              Global Predictor:
                Area = 0.0435221 mm^2
                Peak Dynamic = 0.0168831 W
                Subthreshold Leakage = 0.00759719 W
                Subthreshold Leakage with power gating = 0.0039236 W
                Gate Leakage = 0.000278362 W
                Runtime Dynamic = 0.00100739 W

              Local Predictor:
              L1_Local Predictor:
                Area = 0.0257064 mm^2
                Peak Dynamic = 0.0142575 W
                Subthreshold Leakage = 0.00384344 W
                Subthreshold Leakage with power gating = 0.00198631 W
                Gate Leakage = 0.000154548 W
                Runtime Dynamic = 0.000880381 W

              L2_Local Predictor:
                Area = 0.0151917 mm^2
                Peak Dynamic = 0.00527447 W
                Subthreshold Leakage = 0.00181347 W
                Subthreshold Leakage with power gating = 0.000957045 W
                Gate Leakage = 8.00196e-05 W
                Runtime Dynamic = 0.000342422 W

              Chooser:
                Area = 0.0435221 mm^2
                Peak Dynamic = 0.0168831 W
                Subthreshold Leakage = 0.00759719 W
                Subthreshold Leakage with power gating = 0.0039236 W
                Gate Leakage = 0.000278362 W
                Runtime Dynamic = 0.00100739 W

              RAS:
                Area = 0.0105732 mm^2
                Peak Dynamic = 0.0117602 W
                Subthreshold Leakage = 0.000932505 W
                Subthreshold Leakage with power gating = 0.000494733 W
                Gate Leakage = 4.63858e-05 W
                Runtime Dynamic = 0.000371981 W

          Instruction Buffer:
            Area = 0.0226323 mm^2
            Peak Dynamic = 0.606827 W
            Subthreshold Leakage = 0.00151885 W
            Subthreshold Leakage with power gating = 0.000701682 W
            Gate Leakage = 6.83558e-05 W
            Runtime Dynamic = 0.0248941 W

          Instruction Decoder:
            Area = 1.85799 mm^2
            Peak Dynamic = 1.37404 W
            Subthreshold Leakage = 0.442943 W
            Subthreshold Leakage with power gating = 0.166104 W
            Gate Leakage = 0.0222493 W
            Runtime Dynamic = 0.0845517 W

      Renaming Unit:
        Area = 0.369768 mm^2
        Peak Dynamic = 4.56169 W
        Subthreshold Leakage = 0.070483 W
        Subthreshold Leakage with power gating = 0.0362779 W
        Gate Leakage = 0.00863632 W
        Runtime Dynamic = 0.0551968 W

          Int Front End RAT:
            Area = 0.114751 mm^2
            Peak Dynamic = 0.86945 W
            Subthreshold Leakage = 0.00611897 W
            Subthreshold Leakage with power gating = 0.00348781 W
            Gate Leakage = 0.00038343 W
            Runtime Dynamic = 0.0502571 W

          FP Front End RAT:
            Area = 0.168486 mm^2
            Peak Dynamic = 3.33511 W
            Subthreshold Leakage = 0.0437281 W
            Subthreshold Leakage with power gating = 0.024925 W
            Gate Leakage = 0.00489731 W
            Runtime Dynamic = 0 W

          Free List:
            Area = 0.0414755 mm^2
            Peak Dynamic = 0.0401324 W
            Subthreshold Leakage = 0.000670426 W
            Subthreshold Leakage with power gating = 0.000377987 W
            Gate Leakage = 4.15911e-05 W
            Runtime Dynamic = 0.00493911 W

      Load Store Unit:
        Area = 8.80969 mm^2
        Peak Dynamic = 1.95726 W
        Subthreshold Leakage = 0.591622 W
        Subthreshold Leakage with power gating = 0.283406 W
        Gate Leakage = 0.0351387 W
        Runtime Dynamic = 0.419647 W

          Data Cache:
            Area = 6.84535 mm^2
            Peak Dynamic = 1.86149 W
            Subthreshold Leakage = 0.527675 W
            Subthreshold Leakage with power gating = 0.25085 W
            Gate Leakage = 0.0279261 W
            Runtime Dynamic = 0.299828 W

          LoadQ:
            Area = 0.0836782 mm^2
            Peak Dynamic = 0.0201998 W
            Subthreshold Leakage = 0.00941961 W
            Subthreshold Leakage with power gating = 0.00536918 W
            Gate Leakage = 0.00059896 W
            Runtime Dynamic = 0.0201998 W

          StoreQ:
            Area = 0.322079 mm^2
            Peak Dynamic = 0.0498091 W
            Subthreshold Leakage = 0.0345621 W
            Subthreshold Leakage with power gating = 0.0197004 W
            Gate Leakage = 0.00329971 W
            Runtime Dynamic = 0.0996186 W

      Memory Management Unit:
        Area = 0.434579 mm^2
        Peak Dynamic = 0.287514 W
        Subthreshold Leakage = 0.0769113 W
        Subthreshold Leakage with power gating = 0.0399462 W
        Gate Leakage = 0.00813591 W
        Runtime Dynamic = 0.0300679 W

          Itlb:
            Area = 0.301552 mm^2
            Peak Dynamic = 0.0984551 W
            Subthreshold Leakage = 0.0413758 W
            Subthreshold Leakage with power gating = 0.0235842 W
            Gate Leakage = 0.00393464 W
            Runtime Dynamic = 0.0123898 W

          Dtlb:
            Area = 0.0879726 mm^2
            Peak Dynamic = 0.0176774 W
            Subthreshold Leakage = 0.0155699 W
            Subthreshold Leakage with power gating = 0.00887485 W
            Gate Leakage = 0.00088729 W
            Runtime Dynamic = 0.0176775 W

      Execution Unit:
        Area = 8.2042 mm^2
        Peak Dynamic = 5.04279 W
        Subthreshold Leakage = 1.83518 W
        Subthreshold Leakage with power gating = 0.709678 W
        Gate Leakage = 0.122718 W
        Runtime Dynamic = 1.23808 W

          Register Files:
            Area = 0.570804 mm^2
            Peak Dynamic = 0.0253199 W
            Subthreshold Leakage = 0.0101387 W
            Subthreshold Leakage with power gating = 0.00423643 W
            Gate Leakage = 0.000622708 W
            Runtime Dynamic = 0.0293971 W

              Integer RF:
                Area = 0.362673 mm^2
                Peak Dynamic = 0.0253199 W
                Subthreshold Leakage = 0.00614175 W
                Subthreshold Leakage with power gating = 0.00246675 W
                Gate Leakage = 0.00038992 W
                Runtime Dynamic = 0.0258956 W

              Floating Point RF:
                Area = 0.208131 mm^2
                Peak Dynamic = 0 W
                Subthreshold Leakage = 0.00399698 W
                Subthreshold Leakage with power gating = 0.00176968 W
                Gate Leakage = 0.000232788 W
                Runtime Dynamic = 0.00350149 W

          Instruction Scheduler:
            Area = 2.17927 mm^2
            Peak Dynamic = 4.84781 W
            Subthreshold Leakage = 0.114878 W
            Subthreshold Leakage with power gating = 0.0641291 W
            Gate Leakage = 0.00730101 W
            Runtime Dynamic = 0.366492 W

              Instruction Window:
                Area = 1.00996 mm^2
                Peak Dynamic = 2.07911 W
                Subthreshold Leakage = 0.0800117 W
                Subthreshold Leakage with power gating = 0.0455351 W
                Gate Leakage = 0.00529112 W
                Runtime Dynamic = 0.16726 W

              FP Instruction Window:
                Area = 0.328073 mm^2
                Peak Dynamic = 1.20978 W
                Subthreshold Leakage = 0.017004 W
                Subthreshold Leakage with power gating = 0.00962066 W
                Gate Leakage = 0.00115349 W
                Runtime Dynamic = 0.0965906 W

              ROB:
                Area = 0.841232 mm^2
                Peak Dynamic = 1.55892 W
                Subthreshold Leakage = 0.0178624 W
                Subthreshold Leakage with power gating = 0.00897339 W
                Gate Leakage = 0.000856399 W
                Runtime Dynamic = 0.102641 W

          Integer ALUs (Count: 6 ):
            Area = 0.47087 mm^2
            Peak Dynamic = 0.0954748 W
            Subthreshold Leakage = 0.40222 W
            Subthreshold Leakage with power gating = 0.150833 W
            Gate Leakage = 0.0265291 W
            Runtime Dynamic = 0.179126 W

          Floating Point Units (FPUs) (Count: 2 ):
            Area = 4.6585 mm^2
            Peak Dynamic = 0 W
            Subthreshold Leakage = 0.994829 W
            Subthreshold Leakage with power gating = 0.373061 W
            Gate Leakage = 0.0656156 W
            Runtime Dynamic = 0.304033 W

          Complex ALUs (Mul/Div) (Count: 1 ):
            Area = 0.235435 mm^2
            Peak Dynamic = 0 W
            Subthreshold Leakage = 0.20111 W
            Subthreshold Leakage with power gating = 0.0754163 W
            Gate Leakage = 0.0132646 W
            Runtime Dynamic = 0.202689 W

          Results Broadcast Bus:
            Area Overhead = 0.0442632 mm^2
            Peak Dynamic = 0.0611832 W
            Subthreshold Leakage = 0.0920413 W
            Subthreshold Leakage with power gating = 0.0345155 W
            Gate Leakage = 0.00607074 W
            Runtime Dynamic = 0.156343 W

    L2
    Area = 4.53318 mm^2
    Peak Dynamic = 0 W
    Subthreshold Leakage = 0.834142 W
    Subthreshold Leakage with power gating = 0.401066 W
    Gate Leakage = 0.015464 W
    Runtime Dynamic = 4.06911e-06 W

*****************************************************************************************
Core:
      Area = 32.6082 mm^2
      Peak Dynamic = 15.7281 W
      Subthreshold Leakage = 6.21877 W
      Subthreshold Leakage with power gating = 2.58311 W
      Gate Leakage = 0.372997 W
      Runtime Dynamic = 1.94015 W

      Instruction Fetch Unit:
        Area = 5.86007 mm^2
        Peak Dynamic = 3.87936 W
        Subthreshold Leakage = 0.932587 W
        Subthreshold Leakage with power gating = 0.408542 W
        Gate Leakage = 0.0590479 W
        Runtime Dynamic = 0.197658 W

          Instruction Cache:
            Area = 3.14635 mm^2
            Peak Dynamic = 1.58285 W
            Subthreshold Leakage = 0.367022 W
            Subthreshold Leakage with power gating = 0.180386 W
            Gate Leakage = 0.029931 W
            Runtime Dynamic = 0.0754402 W

          Branch Target Buffer:
            Area = 0.64954 mm^2
            Peak Dynamic = 0.177867 W
            Subthreshold Leakage = 0.0811682 W
            Subthreshold Leakage with power gating = 0.0435357 W
            Gate Leakage = 0.00272758 W
            Runtime Dynamic = 0.00954942 W

          Branch Predictor:
            Area = 0.138516 mm^2
            Peak Dynamic = 0.0597838 W
            Subthreshold Leakage = 0.0199703 W
            Subthreshold Leakage with power gating = 0.0103282 W
            Gate Leakage = 0.000757657 W
            Runtime Dynamic = 0.00326564 W

              Global Predictor:
                Area = 0.0435221 mm^2
                Peak Dynamic = 0.0168831 W
                Subthreshold Leakage = 0.00759719 W
                Subthreshold Leakage with power gating = 0.0039236 W
                Gate Leakage = 0.000278362 W
                Runtime Dynamic = 0.00100693 W

              Local Predictor:
              L1_Local Predictor:
                Area = 0.0257064 mm^2
                Peak Dynamic = 0.0142575 W
                Subthreshold Leakage = 0.00384344 W
                Subthreshold Leakage with power gating = 0.00198631 W
                Gate Leakage = 0.000154548 W
                Runtime Dynamic = 0.000879975 W

              L2_Local Predictor:
                Area = 0.0151917 mm^2
                Peak Dynamic = 0.00527447 W
                Subthreshold Leakage = 0.00181347 W
                Subthreshold Leakage with power gating = 0.000957045 W
                Gate Leakage = 8.00196e-05 W
                Runtime Dynamic = 0.000342259 W

              Chooser:
                Area = 0.0435221 mm^2
                Peak Dynamic = 0.0168831 W
                Subthreshold Leakage = 0.00759719 W
                Subthreshold Leakage with power gating = 0.0039236 W
                Gate Leakage = 0.000278362 W
                Runtime Dynamic = 0.00100693 W

              RAS:
                Area = 0.0105732 mm^2
                Peak Dynamic = 0.0117602 W
                Subthreshold Leakage = 0.000932505 W
                Subthreshold Leakage with power gating = 0.000494733 W
                Gate Leakage = 4.63858e-05 W
                Runtime Dynamic = 0.000371796 W

          Instruction Buffer:
            Area = 0.0226323 mm^2
            Peak Dynamic = 0.606827 W
            Subthreshold Leakage = 0.00151885 W
            Subthreshold Leakage with power gating = 0.000701682 W
            Gate Leakage = 6.83558e-05 W
            Runtime Dynamic = 0.0248843 W

          Instruction Decoder:
            Area = 1.85799 mm^2
            Peak Dynamic = 1.37404 W
            Subthreshold Leakage = 0.442943 W
            Subthreshold Leakage with power gating = 0.166104 W
            Gate Leakage = 0.0222493 W
            Runtime Dynamic = 0.0845181 W

      Renaming Unit:
        Area = 0.369768 mm^2
        Peak Dynamic = 4.56169 W
        Subthreshold Leakage = 0.070483 W
        Subthreshold Leakage with power gating = 0.0362779 W
        Gate Leakage = 0.00863632 W
        Runtime Dynamic = 0.055175 W

          Int Front End RAT:
            Area = 0.114751 mm^2
            Peak Dynamic = 0.86945 W
            Subthreshold Leakage = 0.00611897 W
            Subthreshold Leakage with power gating = 0.00348781 W
            Gate Leakage = 0.00038343 W
            Runtime Dynamic = 0.0502372 W

          FP Front End RAT:
            Area = 0.168486 mm^2
            Peak Dynamic = 3.33511 W
            Subthreshold Leakage = 0.0437281 W
            Subthreshold Leakage with power gating = 0.024925 W
            Gate Leakage = 0.00489731 W
            Runtime Dynamic = 0 W

          Free List:
            Area = 0.0414755 mm^2
            Peak Dynamic = 0.0401324 W
            Subthreshold Leakage = 0.000670426 W
            Subthreshold Leakage with power gating = 0.000377987 W
            Gate Leakage = 4.15911e-05 W
            Runtime Dynamic = 0.00493715 W

      Load Store Unit:
        Area = 8.80969 mm^2
        Peak Dynamic = 1.95689 W
        Subthreshold Leakage = 0.591622 W
        Subthreshold Leakage with power gating = 0.283406 W
        Gate Leakage = 0.0351387 W
        Runtime Dynamic = 0.419426 W

          Data Cache:
            Area = 6.84535 mm^2
            Peak Dynamic = 1.86116 W
            Subthreshold Leakage = 0.527675 W
            Subthreshold Leakage with power gating = 0.25085 W
            Gate Leakage = 0.0279261 W
            Runtime Dynamic = 0.29967 W

          LoadQ:
            Area = 0.0836782 mm^2
            Peak Dynamic = 0.0201893 W
            Subthreshold Leakage = 0.00941961 W
            Subthreshold Leakage with power gating = 0.00536918 W
            Gate Leakage = 0.00059896 W
            Runtime Dynamic = 0.0201892 W

          StoreQ:
            Area = 0.322079 mm^2
            Peak Dynamic = 0.0497834 W
            Subthreshold Leakage = 0.0345621 W
            Subthreshold Leakage with power gating = 0.0197004 W
            Gate Leakage = 0.00329971 W
            Runtime Dynamic = 0.0995662 W

      Memory Management Unit:
        Area = 0.434579 mm^2
        Peak Dynamic = 0.287459 W
        Subthreshold Leakage = 0.0769113 W
        Subthreshold Leakage with power gating = 0.0399462 W
        Gate Leakage = 0.00813591 W
        Runtime Dynamic = 0.0300586 W

          Itlb:
            Area = 0.301552 mm^2
            Peak Dynamic = 0.0984159 W
            Subthreshold Leakage = 0.0413758 W
            Subthreshold Leakage with power gating = 0.0235842 W
            Gate Leakage = 0.00393464 W
            Runtime Dynamic = 0.0123898 W

          Dtlb:
            Area = 0.0879726 mm^2
            Peak Dynamic = 0.0176683 W
            Subthreshold Leakage = 0.0155699 W
            Subthreshold Leakage with power gating = 0.00887485 W
            Gate Leakage = 0.00088729 W
            Runtime Dynamic = 0.0176682 W

      Execution Unit:
        Area = 8.2042 mm^2
        Peak Dynamic = 5.04271 W
        Subthreshold Leakage = 1.83518 W
        Subthreshold Leakage with power gating = 0.709678 W
        Gate Leakage = 0.122718 W
        Runtime Dynamic = 1.23783 W

          Register Files:
            Area = 0.570804 mm^2
            Peak Dynamic = 0.02531 W
            Subthreshold Leakage = 0.0101387 W
            Subthreshold Leakage with power gating = 0.00423643 W
            Gate Leakage = 0.000622708 W
            Runtime Dynamic = 0.0293854 W

              Integer RF:
                Area = 0.362673 mm^2
                Peak Dynamic = 0.02531 W
                Subthreshold Leakage = 0.00614175 W
                Subthreshold Leakage with power gating = 0.00246675 W
                Gate Leakage = 0.00038992 W
                Runtime Dynamic = 0.0258854 W

              Floating Point RF:
                Area = 0.208131 mm^2
                Peak Dynamic = 0 W
                Subthreshold Leakage = 0.00399698 W
                Subthreshold Leakage with power gating = 0.00176968 W
                Gate Leakage = 0.000232788 W
                Runtime Dynamic = 0.0035001 W

          Instruction Scheduler:
            Area = 2.17927 mm^2
            Peak Dynamic = 4.84781 W
            Subthreshold Leakage = 0.114878 W
            Subthreshold Leakage with power gating = 0.0641291 W
            Gate Leakage = 0.00730101 W
            Runtime Dynamic = 0.366345 W

              Instruction Window:
                Area = 1.00996 mm^2
                Peak Dynamic = 2.07911 W
                Subthreshold Leakage = 0.0800117 W
                Subthreshold Leakage with power gating = 0.0455351 W
                Gate Leakage = 0.00529112 W
                Runtime Dynamic = 0.167194 W

              FP Instruction Window:
                Area = 0.328073 mm^2
                Peak Dynamic = 1.20978 W
                Subthreshold Leakage = 0.017004 W
                Subthreshold Leakage with power gating = 0.00962066 W
                Gate Leakage = 0.00115349 W
                Runtime Dynamic = 0.0965523 W

              ROB:
                Area = 0.841232 mm^2
                Peak Dynamic = 1.55892 W
                Subthreshold Leakage = 0.0178624 W
                Subthreshold Leakage with power gating = 0.00897339 W
                Gate Leakage = 0.000856399 W
                Runtime Dynamic = 0.102599 W

          Integer ALUs (Count: 6 ):
            Area = 0.47087 mm^2
            Peak Dynamic = 0.0954376 W
            Subthreshold Leakage = 0.40222 W
            Subthreshold Leakage with power gating = 0.150833 W
            Gate Leakage = 0.0265291 W
            Runtime Dynamic = 0.179095 W

          Floating Point Units (FPUs) (Count: 2 ):
            Area = 4.6585 mm^2
            Peak Dynamic = 0 W
            Subthreshold Leakage = 0.994829 W
            Subthreshold Leakage with power gating = 0.373061 W
            Gate Leakage = 0.0656156 W
            Runtime Dynamic = 0.304033 W

          Complex ALUs (Mul/Div) (Count: 1 ):
            Area = 0.235435 mm^2
            Peak Dynamic = 0 W
            Subthreshold Leakage = 0.20111 W
            Subthreshold Leakage with power gating = 0.0754163 W
            Gate Leakage = 0.0132646 W
            Runtime Dynamic = 0.202689 W

          Results Broadcast Bus:
            Area Overhead = 0.0442632 mm^2
            Peak Dynamic = 0.0611594 W
            Subthreshold Leakage = 0.0920413 W
            Subthreshold Leakage with power gating = 0.0345155 W
            Gate Leakage = 0.00607074 W
            Runtime Dynamic = 0.15628 W

    L2
    Area = 4.53318 mm^2
    Peak Dynamic = 0 W
    Subthreshold Leakage = 0.834142 W
    Subthreshold Leakage with power gating = 0.401066 W
    Gate Leakage = 0.015464 W
    Runtime Dynamic = 4.06911e-06 W

*****************************************************************************************
Core:
      Area = 32.6082 mm^2
      Peak Dynamic = 15.7265 W
      Subthreshold Leakage = 6.21877 W
      Subthreshold Leakage with power gating = 2.58311 W
      Gate Leakage = 0.372997 W
      Runtime Dynamic = 1.9393 W

      Instruction Fetch Unit:
        Area = 5.86007 mm^2
        Peak Dynamic = 3.87844 W
        Subthreshold Leakage = 0.932587 W
        Subthreshold Leakage with power gating = 0.408542 W
        Gate Leakage = 0.0590479 W
        Runtime Dynamic = 0.197546 W

          Instruction Cache:
            Area = 3.14635 mm^2
            Peak Dynamic = 1.58198 W
            Subthreshold Leakage = 0.367022 W
            Subthreshold Leakage with power gating = 0.180386 W
            Gate Leakage = 0.029931 W
            Runtime Dynamic = 0.0753955 W

          Branch Target Buffer:
            Area = 0.64954 mm^2
            Peak Dynamic = 0.177867 W
            Subthreshold Leakage = 0.0811682 W
            Subthreshold Leakage with power gating = 0.0435357 W
            Gate Leakage = 0.00272758 W
            Runtime Dynamic = 0.00954471 W

          Branch Predictor:
            Area = 0.138516 mm^2
            Peak Dynamic = 0.0597838 W
            Subthreshold Leakage = 0.0199703 W
            Subthreshold Leakage with power gating = 0.0103282 W
            Gate Leakage = 0.000757657 W
            Runtime Dynamic = 0.00326385 W

              Global Predictor:
                Area = 0.0435221 mm^2
                Peak Dynamic = 0.0168831 W
                Subthreshold Leakage = 0.00759719 W
                Subthreshold Leakage with power gating = 0.0039236 W
                Gate Leakage = 0.000278362 W
                Runtime Dynamic = 0.00100638 W

              Local Predictor:
              L1_Local Predictor:
                Area = 0.0257064 mm^2
                Peak Dynamic = 0.0142575 W
                Subthreshold Leakage = 0.00384344 W
                Subthreshold Leakage with power gating = 0.00198631 W
                Gate Leakage = 0.000154548 W
                Runtime Dynamic = 0.000879477 W

              L2_Local Predictor:
                Area = 0.0151917 mm^2
                Peak Dynamic = 0.00527447 W
                Subthreshold Leakage = 0.00181347 W
                Subthreshold Leakage with power gating = 0.000957045 W
                Gate Leakage = 8.00196e-05 W
                Runtime Dynamic = 0.000342057 W

              Chooser:
                Area = 0.0435221 mm^2
                Peak Dynamic = 0.0168831 W
                Subthreshold Leakage = 0.00759719 W
                Subthreshold Leakage with power gating = 0.0039236 W
                Gate Leakage = 0.000278362 W
                Runtime Dynamic = 0.00100638 W

              RAS:
                Area = 0.0105732 mm^2
                Peak Dynamic = 0.0117602 W
                Subthreshold Leakage = 0.000932505 W
                Subthreshold Leakage with power gating = 0.000494733 W
                Gate Leakage = 4.63858e-05 W
                Runtime Dynamic = 0.000371611 W

          Instruction Buffer:
            Area = 0.0226323 mm^2
            Peak Dynamic = 0.606827 W
            Subthreshold Leakage = 0.00151885 W
            Subthreshold Leakage with power gating = 0.000701682 W
            Gate Leakage = 6.83558e-05 W
            Runtime Dynamic = 0.0248705 W

          Instruction Decoder:
            Area = 1.85799 mm^2
            Peak Dynamic = 1.37404 W
            Subthreshold Leakage = 0.442943 W
            Subthreshold Leakage with power gating = 0.166104 W
            Gate Leakage = 0.0222493 W
            Runtime Dynamic = 0.0844712 W

      Renaming Unit:
        Area = 0.369768 mm^2
        Peak Dynamic = 4.56169 W
        Subthreshold Leakage = 0.070483 W
        Subthreshold Leakage with power gating = 0.0362779 W
        Gate Leakage = 0.00863632 W
        Runtime Dynamic = 0.0551442 W

          Int Front End RAT:
            Area = 0.114751 mm^2
            Peak Dynamic = 0.86945 W
            Subthreshold Leakage = 0.00611897 W
            Subthreshold Leakage with power gating = 0.00348781 W
            Gate Leakage = 0.00038343 W
            Runtime Dynamic = 0.0502091 W

          FP Front End RAT:
            Area = 0.168486 mm^2
            Peak Dynamic = 3.33511 W
            Subthreshold Leakage = 0.0437281 W
            Subthreshold Leakage with power gating = 0.024925 W
            Gate Leakage = 0.00489731 W
            Runtime Dynamic = 0 W

          Free List:
            Area = 0.0414755 mm^2
            Peak Dynamic = 0.0401324 W
            Subthreshold Leakage = 0.000670426 W
            Subthreshold Leakage with power gating = 0.000377987 W
            Gate Leakage = 4.15911e-05 W
            Runtime Dynamic = 0.00493441 W

      Load Store Unit:
        Area = 8.80969 mm^2
        Peak Dynamic = 1.95634 W
        Subthreshold Leakage = 0.591622 W
        Subthreshold Leakage with power gating = 0.283406 W
        Gate Leakage = 0.0351387 W
        Runtime Dynamic = 0.419111 W

          Data Cache:
            Area = 6.84535 mm^2
            Peak Dynamic = 1.86069 W
            Subthreshold Leakage = 0.527675 W
            Subthreshold Leakage with power gating = 0.25085 W
            Gate Leakage = 0.0279261 W
            Runtime Dynamic = 0.299445 W

          LoadQ:
            Area = 0.0836782 mm^2
            Peak Dynamic = 0.0201739 W
            Subthreshold Leakage = 0.00941961 W
            Subthreshold Leakage with power gating = 0.00536918 W
            Gate Leakage = 0.00059896 W
            Runtime Dynamic = 0.020174 W

          StoreQ:
            Area = 0.322079 mm^2
            Peak Dynamic = 0.0497454 W
            Subthreshold Leakage = 0.0345621 W
            Subthreshold Leakage with power gating = 0.0197004 W
            Gate Leakage = 0.00329971 W
            Runtime Dynamic = 0.0994913 W

      Memory Management Unit:
        Area = 0.434579 mm^2
        Peak Dynamic = 0.287382 W
        Subthreshold Leakage = 0.0769113 W
        Subthreshold Leakage with power gating = 0.0399462 W
        Gate Leakage = 0.00813591 W
        Runtime Dynamic = 0.030038 W

          Itlb:
            Area = 0.301552 mm^2
            Peak Dynamic = 0.0983615 W
            Subthreshold Leakage = 0.0413758 W
            Subthreshold Leakage with power gating = 0.0235842 W
            Gate Leakage = 0.00393464 W
            Runtime Dynamic = 0.0123824 W

          Dtlb:
            Area = 0.0879726 mm^2
            Peak Dynamic = 0.0176548 W
            Subthreshold Leakage = 0.0155699 W
            Subthreshold Leakage with power gating = 0.00887485 W
            Gate Leakage = 0.00088729 W
            Runtime Dynamic = 0.0176549 W

      Execution Unit:
        Area = 8.2042 mm^2
        Peak Dynamic = 5.0426 W
        Subthreshold Leakage = 1.83518 W
        Subthreshold Leakage with power gating = 0.709678 W
        Gate Leakage = 0.122718 W
        Runtime Dynamic = 1.23746 W

          Register Files:
            Area = 0.570804 mm^2
            Peak Dynamic = 0.0252958 W
            Subthreshold Leakage = 0.0101387 W
            Subthreshold Leakage with power gating = 0.00423643 W
            Gate Leakage = 0.000622708 W
            Runtime Dynamic = 0.0293689 W

              Integer RF:
                Area = 0.362673 mm^2
                Peak Dynamic = 0.0252958 W
                Subthreshold Leakage = 0.00614175 W
                Subthreshold Leakage with power gating = 0.00246675 W
                Gate Leakage = 0.00038992 W
                Runtime Dynamic = 0.0258709 W

              Floating Point RF:
                Area = 0.208131 mm^2
                Peak Dynamic = 0 W
                Subthreshold Leakage = 0.00399698 W
                Subthreshold Leakage with power gating = 0.00176968 W
                Gate Leakage = 0.000232788 W
                Runtime Dynamic = 0.00349808 W

          Instruction Scheduler:
            Area = 2.17927 mm^2
            Peak Dynamic = 4.84781 W
            Subthreshold Leakage = 0.114878 W
            Subthreshold Leakage with power gating = 0.0641291 W
            Gate Leakage = 0.00730101 W
            Runtime Dynamic = 0.366137 W

              Instruction Window:
                Area = 1.00996 mm^2
                Peak Dynamic = 2.07911 W
                Subthreshold Leakage = 0.0800117 W
                Subthreshold Leakage with power gating = 0.0455351 W
                Gate Leakage = 0.00529112 W
                Runtime Dynamic = 0.167101 W

              FP Instruction Window:
                Area = 0.328073 mm^2
                Peak Dynamic = 1.20978 W
                Subthreshold Leakage = 0.017004 W
                Subthreshold Leakage with power gating = 0.00962066 W
                Gate Leakage = 0.00115349 W
                Runtime Dynamic = 0.0964983 W

              ROB:
                Area = 0.841232 mm^2
                Peak Dynamic = 1.55892 W
                Subthreshold Leakage = 0.0178624 W
                Subthreshold Leakage with power gating = 0.00897339 W
                Gate Leakage = 0.000856399 W
                Runtime Dynamic = 0.102538 W

          Integer ALUs (Count: 6 ):
            Area = 0.47087 mm^2
            Peak Dynamic = 0.095384 W
            Subthreshold Leakage = 0.40222 W
            Subthreshold Leakage with power gating = 0.150833 W
            Gate Leakage = 0.0265291 W
            Runtime Dynamic = 0.179046 W

          Floating Point Units (FPUs) (Count: 2 ):
            Area = 4.6585 mm^2
            Peak Dynamic = 0 W
            Subthreshold Leakage = 0.994829 W
            Subthreshold Leakage with power gating = 0.373061 W
            Gate Leakage = 0.0656156 W
            Runtime Dynamic = 0.304033 W

          Complex ALUs (Mul/Div) (Count: 1 ):
            Area = 0.235435 mm^2
            Peak Dynamic = 0 W
            Subthreshold Leakage = 0.20111 W
            Subthreshold Leakage with power gating = 0.0754163 W
            Gate Leakage = 0.0132646 W
            Runtime Dynamic = 0.202689 W

          Results Broadcast Bus:
            Area Overhead = 0.0442632 mm^2
            Peak Dynamic = 0.0611251 W
            Subthreshold Leakage = 0.0920413 W
            Subthreshold Leakage with power gating = 0.0345155 W
            Gate Leakage = 0.00607074 W
            Runtime Dynamic = 0.156182 W

    L2
    Area = 4.53318 mm^2
    Peak Dynamic = 0 W
    Subthreshold Leakage = 0.834142 W
    Subthreshold Leakage with power gating = 0.401066 W
    Gate Leakage = 0.015464 W
    Runtime Dynamic = 4.06911e-06 W

*****************************************************************************************
Core:
      Area = 32.6082 mm^2
      Peak Dynamic = 15.7485 W
      Subthreshold Leakage = 6.21877 W
      Subthreshold Leakage with power gating = 2.58311 W
      Gate Leakage = 0.372997 W
      Runtime Dynamic = 1.95045 W

      Instruction Fetch Unit:
        Area = 5.86007 mm^2
        Peak Dynamic = 3.89124 W
        Subthreshold Leakage = 0.932587 W
        Subthreshold Leakage with power gating = 0.408542 W
        Gate Leakage = 0.0590479 W
        Runtime Dynamic = 0.199279 W

          Instruction Cache:
            Area = 3.14635 mm^2
            Peak Dynamic = 1.59417 W
            Subthreshold Leakage = 0.367022 W
            Subthreshold Leakage with power gating = 0.180386 W
            Gate Leakage = 0.029931 W
            Runtime Dynamic = 0.0761756 W

          Branch Target Buffer:
            Area = 0.64954 mm^2
            Peak Dynamic = 0.177867 W
            Subthreshold Leakage = 0.0811682 W
            Subthreshold Leakage with power gating = 0.0435357 W
            Gate Leakage = 0.00272758 W
            Runtime Dynamic = 0.00962295 W

          Branch Predictor:
            Area = 0.138516 mm^2
            Peak Dynamic = 0.0597838 W
            Subthreshold Leakage = 0.0199703 W
            Subthreshold Leakage with power gating = 0.0103282 W
            Gate Leakage = 0.000757657 W
            Runtime Dynamic = 0.00329494 W

              Global Predictor:
                Area = 0.0435221 mm^2
                Peak Dynamic = 0.0168831 W
                Subthreshold Leakage = 0.00759719 W
                Subthreshold Leakage with power gating = 0.0039236 W
                Gate Leakage = 0.000278362 W
                Runtime Dynamic = 0.00101606 W

              Local Predictor:
              L1_Local Predictor:
                Area = 0.0257064 mm^2
                Peak Dynamic = 0.0142575 W
                Subthreshold Leakage = 0.00384344 W
                Subthreshold Leakage with power gating = 0.00198631 W
                Gate Leakage = 0.000154548 W
                Runtime Dynamic = 0.000888317 W

              L2_Local Predictor:
                Area = 0.0151917 mm^2
                Peak Dynamic = 0.00527447 W
                Subthreshold Leakage = 0.00181347 W
                Subthreshold Leakage with power gating = 0.000957045 W
                Gate Leakage = 8.00196e-05 W
                Runtime Dynamic = 0.000345703 W

              Chooser:
                Area = 0.0435221 mm^2
                Peak Dynamic = 0.0168831 W
                Subthreshold Leakage = 0.00759719 W
                Subthreshold Leakage with power gating = 0.0039236 W
                Gate Leakage = 0.000278362 W
                Runtime Dynamic = 0.00101606 W

              RAS:
                Area = 0.0105732 mm^2
                Peak Dynamic = 0.0117602 W
                Subthreshold Leakage = 0.000932505 W
                Subthreshold Leakage with power gating = 0.000494733 W
                Gate Leakage = 4.63858e-05 W
                Runtime Dynamic = 0.000374504 W

          Instruction Buffer:
            Area = 0.0226323 mm^2
            Peak Dynamic = 0.606827 W
            Subthreshold Leakage = 0.00151885 W
            Subthreshold Leakage with power gating = 0.000701682 W
            Gate Leakage = 6.83558e-05 W
            Runtime Dynamic = 0.0250622 W

          Instruction Decoder:
            Area = 1.85799 mm^2
            Peak Dynamic = 1.37404 W
            Subthreshold Leakage = 0.442943 W
            Subthreshold Leakage with power gating = 0.166104 W
            Gate Leakage = 0.0222493 W
            Runtime Dynamic = 0.0851225 W

      Renaming Unit:
        Area = 0.369768 mm^2
        Peak Dynamic = 4.56169 W
        Subthreshold Leakage = 0.070483 W
        Subthreshold Leakage with power gating = 0.0362779 W
        Gate Leakage = 0.00863632 W
        Runtime Dynamic = 0.0555678 W

          Int Front End RAT:
            Area = 0.114751 mm^2
            Peak Dynamic = 0.86945 W
            Subthreshold Leakage = 0.00611897 W
            Subthreshold Leakage with power gating = 0.00348781 W
            Gate Leakage = 0.00038343 W
            Runtime Dynamic = 0.0505947 W

          FP Front End RAT:
            Area = 0.168486 mm^2
            Peak Dynamic = 3.33511 W
            Subthreshold Leakage = 0.0437281 W
            Subthreshold Leakage with power gating = 0.024925 W
            Gate Leakage = 0.00489731 W
            Runtime Dynamic = 0 W

          Free List:
            Area = 0.0414755 mm^2
            Peak Dynamic = 0.0401324 W
            Subthreshold Leakage = 0.000670426 W
            Subthreshold Leakage with power gating = 0.000377987 W
            Gate Leakage = 4.15911e-05 W
            Runtime Dynamic = 0.00497246 W

      Load Store Unit:
        Area = 8.80969 mm^2
        Peak Dynamic = 1.96299 W
        Subthreshold Leakage = 0.591622 W
        Subthreshold Leakage with power gating = 0.283406 W
        Gate Leakage = 0.0351387 W
        Runtime Dynamic = 0.422979 W

          Data Cache:
            Area = 6.84535 mm^2
            Peak Dynamic = 1.86645 W
            Subthreshold Leakage = 0.527675 W
            Subthreshold Leakage with power gating = 0.25085 W
            Gate Leakage = 0.0279261 W
            Runtime Dynamic = 0.302209 W

          LoadQ:
            Area = 0.0836782 mm^2
            Peak Dynamic = 0.0203603 W
            Subthreshold Leakage = 0.00941961 W
            Subthreshold Leakage with power gating = 0.00536918 W
            Gate Leakage = 0.00059896 W
            Runtime Dynamic = 0.0203602 W

          StoreQ:
            Area = 0.322079 mm^2
            Peak Dynamic = 0.050205 W
            Subthreshold Leakage = 0.0345621 W
            Subthreshold Leakage with power gating = 0.0197004 W
            Gate Leakage = 0.00329971 W
            Runtime Dynamic = 0.10041 W

      Memory Management Unit:
        Area = 0.434579 mm^2
        Peak Dynamic = 0.288422 W
        Subthreshold Leakage = 0.0769113 W
        Subthreshold Leakage with power gating = 0.0399462 W
        Gate Leakage = 0.00813591 W
        Runtime Dynamic = 0.0303302 W

          Itlb:
            Area = 0.301552 mm^2
            Peak Dynamic = 0.0991199 W
            Subthreshold Leakage = 0.0413758 W
            Subthreshold Leakage with power gating = 0.0235842 W
            Gate Leakage = 0.00393464 W
            Runtime Dynamic = 0.0125117 W

          Dtlb:
            Area = 0.0879726 mm^2
            Peak Dynamic = 0.0178179 W
            Subthreshold Leakage = 0.0155699 W
            Subthreshold Leakage with power gating = 0.00887485 W
            Gate Leakage = 0.00088729 W
            Runtime Dynamic = 0.0178179 W

      Execution Unit:
        Area = 8.2042 mm^2
        Peak Dynamic = 5.04411 W
        Subthreshold Leakage = 1.83518 W
        Subthreshold Leakage with power gating = 0.709678 W
        Gate Leakage = 0.122718 W
        Runtime Dynamic = 1.24229 W

          Register Files:
            Area = 0.570804 mm^2
            Peak Dynamic = 0.0254909 W
            Subthreshold Leakage = 0.0101387 W
            Subthreshold Leakage with power gating = 0.00423643 W
            Gate Leakage = 0.000622708 W
            Runtime Dynamic = 0.0295956 W

              Integer RF:
                Area = 0.362673 mm^2
                Peak Dynamic = 0.0254909 W
                Subthreshold Leakage = 0.00614175 W
                Subthreshold Leakage with power gating = 0.00246675 W
                Gate Leakage = 0.00038992 W
                Runtime Dynamic = 0.0260705 W

              Floating Point RF:
                Area = 0.208131 mm^2
                Peak Dynamic = 0 W
                Subthreshold Leakage = 0.00399698 W
                Subthreshold Leakage with power gating = 0.00176968 W
                Gate Leakage = 0.000232788 W
                Runtime Dynamic = 0.00352513 W

          Instruction Scheduler:
            Area = 2.17927 mm^2
            Peak Dynamic = 4.84781 W
            Subthreshold Leakage = 0.114878 W
            Subthreshold Leakage with power gating = 0.0641291 W
            Gate Leakage = 0.00730101 W
            Runtime Dynamic = 0.368964 W

              Instruction Window:
                Area = 1.00996 mm^2
                Peak Dynamic = 2.07911 W
                Subthreshold Leakage = 0.0800117 W
                Subthreshold Leakage with power gating = 0.0455351 W
                Gate Leakage = 0.00529112 W
                Runtime Dynamic = 0.168389 W

              FP Instruction Window:
                Area = 0.328073 mm^2
                Peak Dynamic = 1.20978 W
                Subthreshold Leakage = 0.017004 W
                Subthreshold Leakage with power gating = 0.00962066 W
                Gate Leakage = 0.00115349 W
                Runtime Dynamic = 0.0972427 W

              ROB:
                Area = 0.841232 mm^2
                Peak Dynamic = 1.55892 W
                Subthreshold Leakage = 0.0178624 W
                Subthreshold Leakage with power gating = 0.00897339 W
                Gate Leakage = 0.000856399 W
                Runtime Dynamic = 0.103332 W

          Integer ALUs (Count: 6 ):
            Area = 0.47087 mm^2
            Peak Dynamic = 0.0961195 W
            Subthreshold Leakage = 0.40222 W
            Subthreshold Leakage with power gating = 0.150833 W
            Gate Leakage = 0.0265291 W
            Runtime Dynamic = 0.179639 W

          Floating Point Units (FPUs) (Count: 2 ):
            Area = 4.6585 mm^2
            Peak Dynamic = 0 W
            Subthreshold Leakage = 0.994829 W
            Subthreshold Leakage with power gating = 0.373061 W
            Gate Leakage = 0.0656156 W
            Runtime Dynamic = 0.304033 W

          Complex ALUs (Mul/Div) (Count: 1 ):
            Area = 0.235435 mm^2
            Peak Dynamic = 0 W
            Subthreshold Leakage = 0.20111 W
            Subthreshold Leakage with power gating = 0.0754163 W
            Gate Leakage = 0.0132646 W
            Runtime Dynamic = 0.202689 W

          Results Broadcast Bus:
            Area Overhead = 0.0442632 mm^2
            Peak Dynamic = 0.0615964 W
            Subthreshold Leakage = 0.0920413 W
            Subthreshold Leakage with power gating = 0.0345155 W
            Gate Leakage = 0.00607074 W
            Runtime Dynamic = 0.157373 W

    L2
    Area = 4.53318 mm^2
    Peak Dynamic = 0 W
    Subthreshold Leakage = 0.834142 W
    Subthreshold Leakage with power gating = 0.401066 W
    Gate Leakage = 0.015464 W
    Runtime Dynamic = 4.06911e-06 W

*****************************************************************************************
Core:
      Area = 32.6082 mm^2
      Peak Dynamic = 15.7449 W
      Subthreshold Leakage = 6.21877 W
      Subthreshold Leakage with power gating = 2.58311 W
      Gate Leakage = 0.372997 W
      Runtime Dynamic = 1.94895 W

      Instruction Fetch Unit:
        Area = 5.86007 mm^2
        Peak Dynamic = 3.8888 W
        Subthreshold Leakage = 0.932587 W
        Subthreshold Leakage with power gating = 0.408542 W
        Gate Leakage = 0.0590479 W
        Runtime Dynamic = 0.199014 W

          Instruction Cache:
            Area = 3.14635 mm^2
            Peak Dynamic = 1.59185 W
            Subthreshold Leakage = 0.367022 W
            Subthreshold Leakage with power gating = 0.180386 W
            Gate Leakage = 0.029931 W
            Runtime Dynamic = 0.0760862 W

          Branch Target Buffer:
            Area = 0.64954 mm^2
            Peak Dynamic = 0.177867 W
            Subthreshold Leakage = 0.0811682 W
            Subthreshold Leakage with power gating = 0.0435357 W
            Gate Leakage = 0.00272758 W
            Runtime Dynamic = 0.00961209 W

          Branch Predictor:
            Area = 0.138516 mm^2
            Peak Dynamic = 0.0597838 W
            Subthreshold Leakage = 0.0199703 W
            Subthreshold Leakage with power gating = 0.0103282 W
            Gate Leakage = 0.000757657 W
            Runtime Dynamic = 0.00329022 W

              Global Predictor:
                Area = 0.0435221 mm^2
                Peak Dynamic = 0.0168831 W
                Subthreshold Leakage = 0.00759719 W
                Subthreshold Leakage with power gating = 0.0039236 W
                Gate Leakage = 0.000278362 W
                Runtime Dynamic = 0.00101464 W

              Local Predictor:
              L1_Local Predictor:
                Area = 0.0257064 mm^2
                Peak Dynamic = 0.0142575 W
                Subthreshold Leakage = 0.00384344 W
                Subthreshold Leakage with power gating = 0.00198631 W
                Gate Leakage = 0.000154548 W
                Runtime Dynamic = 0.000886997 W

              L2_Local Predictor:
                Area = 0.0151917 mm^2
                Peak Dynamic = 0.00527447 W
                Subthreshold Leakage = 0.00181347 W
                Subthreshold Leakage with power gating = 0.000957045 W
                Gate Leakage = 8.00196e-05 W
                Runtime Dynamic = 0.000345149 W

              Chooser:
                Area = 0.0435221 mm^2
                Peak Dynamic = 0.0168831 W
                Subthreshold Leakage = 0.00759719 W
                Subthreshold Leakage with power gating = 0.0039236 W
                Gate Leakage = 0.000278362 W
                Runtime Dynamic = 0.00101464 W

              RAS:
                Area = 0.0105732 mm^2
                Peak Dynamic = 0.0117602 W
                Subthreshold Leakage = 0.000932505 W
                Subthreshold Leakage with power gating = 0.000494733 W
                Gate Leakage = 4.63858e-05 W
                Runtime Dynamic = 0.00037395 W

          Instruction Buffer:
            Area = 0.0226323 mm^2
            Peak Dynamic = 0.606827 W
            Subthreshold Leakage = 0.00151885 W
            Subthreshold Leakage with power gating = 0.000701682 W
            Gate Leakage = 6.83558e-05 W
            Runtime Dynamic = 0.0250258 W

          Instruction Decoder:
            Area = 1.85799 mm^2
            Peak Dynamic = 1.37404 W
            Subthreshold Leakage = 0.442943 W
            Subthreshold Leakage with power gating = 0.166104 W
            Gate Leakage = 0.0222493 W
            Runtime Dynamic = 0.0849987 W

      Renaming Unit:
        Area = 0.369768 mm^2
        Peak Dynamic = 4.56169 W
        Subthreshold Leakage = 0.070483 W
        Subthreshold Leakage with power gating = 0.0362779 W
        Gate Leakage = 0.00863632 W
        Runtime Dynamic = 0.0554859 W

          Int Front End RAT:
            Area = 0.114751 mm^2
            Peak Dynamic = 0.86945 W
            Subthreshold Leakage = 0.00611897 W
            Subthreshold Leakage with power gating = 0.00348781 W
            Gate Leakage = 0.00038343 W
            Runtime Dynamic = 0.05052 W

          FP Front End RAT:
            Area = 0.168486 mm^2
            Peak Dynamic = 3.33511 W
            Subthreshold Leakage = 0.0437281 W
            Subthreshold Leakage with power gating = 0.024925 W
            Gate Leakage = 0.00489731 W
            Runtime Dynamic = 0 W

          Free List:
            Area = 0.0414755 mm^2
            Peak Dynamic = 0.0401324 W
            Subthreshold Leakage = 0.000670426 W
            Subthreshold Leakage with power gating = 0.000377987 W
            Gate Leakage = 4.15911e-05 W
            Runtime Dynamic = 0.00496522 W

      Load Store Unit:
        Area = 8.80969 mm^2
        Peak Dynamic = 1.96236 W
        Subthreshold Leakage = 0.591622 W
        Subthreshold Leakage with power gating = 0.283406 W
        Gate Leakage = 0.0351387 W
        Runtime Dynamic = 0.422611 W

          Data Cache:
            Area = 6.84535 mm^2
            Peak Dynamic = 1.8659 W
            Subthreshold Leakage = 0.527675 W
            Subthreshold Leakage with power gating = 0.25085 W
            Gate Leakage = 0.0279261 W
            Runtime Dynamic = 0.301946 W

          LoadQ:
            Area = 0.0836782 mm^2
            Peak Dynamic = 0.0203426 W
            Subthreshold Leakage = 0.00941961 W
            Subthreshold Leakage with power gating = 0.00536918 W
            Gate Leakage = 0.00059896 W
            Runtime Dynamic = 0.0203425 W

          StoreQ:
            Area = 0.322079 mm^2
            Peak Dynamic = 0.0501615 W
            Subthreshold Leakage = 0.0345621 W
            Subthreshold Leakage with power gating = 0.0197004 W
            Gate Leakage = 0.00329971 W
            Runtime Dynamic = 0.100322 W

      Memory Management Unit:
        Area = 0.434579 mm^2
        Peak Dynamic = 0.288251 W
        Subthreshold Leakage = 0.0769113 W
        Subthreshold Leakage with power gating = 0.0399462 W
        Gate Leakage = 0.00813591 W
        Runtime Dynamic = 0.0302996 W

          Itlb:
            Area = 0.301552 mm^2
            Peak Dynamic = 0.0989755 W
            Subthreshold Leakage = 0.0413758 W
            Subthreshold Leakage with power gating = 0.0235842 W
            Gate Leakage = 0.00393464 W
            Runtime Dynamic = 0.0124966 W

          Dtlb:
            Area = 0.0879726 mm^2
            Peak Dynamic = 0.0178025 W
            Subthreshold Leakage = 0.0155699 W
            Subthreshold Leakage with power gating = 0.00887485 W
            Gate Leakage = 0.00088729 W
            Runtime Dynamic = 0.0178024 W

      Execution Unit:
        Area = 8.2042 mm^2
        Peak Dynamic = 5.04382 W
        Subthreshold Leakage = 1.83518 W
        Subthreshold Leakage with power gating = 0.709678 W
        Gate Leakage = 0.122718 W
        Runtime Dynamic = 1.24154 W

          Register Files:
            Area = 0.570804 mm^2
            Peak Dynamic = 0.0254538 W
            Subthreshold Leakage = 0.0101387 W
            Subthreshold Leakage with power gating = 0.00423643 W
            Gate Leakage = 0.000622708 W
            Runtime Dynamic = 0.0295523 W

              Integer RF:
                Area = 0.362673 mm^2
                Peak Dynamic = 0.0254538 W
                Subthreshold Leakage = 0.00614175 W
                Subthreshold Leakage with power gating = 0.00246675 W
                Gate Leakage = 0.00038992 W
                Runtime Dynamic = 0.0260325 W

              Floating Point RF:
                Area = 0.208131 mm^2
                Peak Dynamic = 0 W
                Subthreshold Leakage = 0.00399698 W
                Subthreshold Leakage with power gating = 0.00176968 W
                Gate Leakage = 0.000232788 W
                Runtime Dynamic = 0.00351986 W

          Instruction Scheduler:
            Area = 2.17927 mm^2
            Peak Dynamic = 4.84781 W
            Subthreshold Leakage = 0.114878 W
            Subthreshold Leakage with power gating = 0.0641291 W
            Gate Leakage = 0.00730101 W
            Runtime Dynamic = 0.368475 W

              Instruction Window:
                Area = 1.00996 mm^2
                Peak Dynamic = 2.07911 W
                Subthreshold Leakage = 0.0800117 W
                Subthreshold Leakage with power gating = 0.0455351 W
                Gate Leakage = 0.00529112 W
                Runtime Dynamic = 0.168144 W

              FP Instruction Window:
                Area = 0.328073 mm^2
                Peak Dynamic = 1.20978 W
                Subthreshold Leakage = 0.017004 W
                Subthreshold Leakage with power gating = 0.00962066 W
                Gate Leakage = 0.00115349 W
                Runtime Dynamic = 0.0971009 W

              ROB:
                Area = 0.841232 mm^2
                Peak Dynamic = 1.55892 W
                Subthreshold Leakage = 0.0178624 W
                Subthreshold Leakage with power gating = 0.00897339 W
                Gate Leakage = 0.000856399 W
                Runtime Dynamic = 0.10323 W

          Integer ALUs (Count: 6 ):
            Area = 0.47087 mm^2
            Peak Dynamic = 0.0959798 W
            Subthreshold Leakage = 0.40222 W
            Subthreshold Leakage with power gating = 0.150833 W
            Gate Leakage = 0.0265291 W
            Runtime Dynamic = 0.179565 W

          Floating Point Units (FPUs) (Count: 2 ):
            Area = 4.6585 mm^2
            Peak Dynamic = 0 W
            Subthreshold Leakage = 0.994829 W
            Subthreshold Leakage with power gating = 0.373061 W
            Gate Leakage = 0.0656156 W
            Runtime Dynamic = 0.304033 W

          Complex ALUs (Mul/Div) (Count: 1 ):
            Area = 0.235435 mm^2
            Peak Dynamic = 0 W
            Subthreshold Leakage = 0.20111 W
            Subthreshold Leakage with power gating = 0.0754163 W
            Gate Leakage = 0.0132646 W
            Runtime Dynamic = 0.202689 W

          Results Broadcast Bus:
            Area Overhead = 0.0442632 mm^2
            Peak Dynamic = 0.0615069 W
            Subthreshold Leakage = 0.0920413 W
            Subthreshold Leakage with power gating = 0.0345155 W
            Gate Leakage = 0.00607074 W
            Runtime Dynamic = 0.157224 W

    L2
    Area = 4.53318 mm^2
    Peak Dynamic = 0 W
    Subthreshold Leakage = 0.834142 W
    Subthreshold Leakage with power gating = 0.401066 W
    Gate Leakage = 0.015464 W
    Runtime Dynamic = 4.06911e-06 W

*****************************************************************************************
Core:
      Area = 32.6082 mm^2
      Peak Dynamic = 15.7444 W
      Subthreshold Leakage = 6.21877 W
      Subthreshold Leakage with power gating = 2.58311 W
      Gate Leakage = 0.372997 W
      Runtime Dynamic = 1.94863 W

      Instruction Fetch Unit:
        Area = 5.86007 mm^2
        Peak Dynamic = 3.8885 W
        Subthreshold Leakage = 0.932587 W
        Subthreshold Leakage with power gating = 0.408542 W
        Gate Leakage = 0.0590479 W
        Runtime Dynamic = 0.198939 W

          Instruction Cache:
            Area = 3.14635 mm^2
            Peak Dynamic = 1.59156 W
            Subthreshold Leakage = 0.367022 W
            Subthreshold Leakage with power gating = 0.180386 W
            Gate Leakage = 0.029931 W
            Runtime Dynamic = 0.0760365 W

          Branch Target Buffer:
            Area = 0.64954 mm^2
            Peak Dynamic = 0.177867 W
            Subthreshold Leakage = 0.0811682 W
            Subthreshold Leakage with power gating = 0.0435357 W
            Gate Leakage = 0.00272758 W
            Runtime Dynamic = 0.00960846 W

          Branch Predictor:
            Area = 0.138516 mm^2
            Peak Dynamic = 0.0597838 W
            Subthreshold Leakage = 0.0199703 W
            Subthreshold Leakage with power gating = 0.0103282 W
            Gate Leakage = 0.000757657 W
            Runtime Dynamic = 0.00328887 W

              Global Predictor:
                Area = 0.0435221 mm^2
                Peak Dynamic = 0.0168831 W
                Subthreshold Leakage = 0.00759719 W
                Subthreshold Leakage with power gating = 0.0039236 W
                Gate Leakage = 0.000278362 W
                Runtime Dynamic = 0.00101419 W

              Local Predictor:
              L1_Local Predictor:
                Area = 0.0257064 mm^2
                Peak Dynamic = 0.0142575 W
                Subthreshold Leakage = 0.00384344 W
                Subthreshold Leakage with power gating = 0.00198631 W
                Gate Leakage = 0.000154548 W
                Runtime Dynamic = 0.000886595 W

              L2_Local Predictor:
                Area = 0.0151917 mm^2
                Peak Dynamic = 0.00527447 W
                Subthreshold Leakage = 0.00181347 W
                Subthreshold Leakage with power gating = 0.000957045 W
                Gate Leakage = 8.00196e-05 W
                Runtime Dynamic = 0.000344984 W

              Chooser:
                Area = 0.0435221 mm^2
                Peak Dynamic = 0.0168831 W
                Subthreshold Leakage = 0.00759719 W
                Subthreshold Leakage with power gating = 0.0039236 W
                Gate Leakage = 0.000278362 W
                Runtime Dynamic = 0.00101419 W

              RAS:
                Area = 0.0105732 mm^2
                Peak Dynamic = 0.0117602 W
                Subthreshold Leakage = 0.000932505 W
                Subthreshold Leakage with power gating = 0.000494733 W
                Gate Leakage = 4.63858e-05 W
                Runtime Dynamic = 0.000373889 W

          Instruction Buffer:
            Area = 0.0226323 mm^2
            Peak Dynamic = 0.606827 W
            Subthreshold Leakage = 0.00151885 W
            Subthreshold Leakage with power gating = 0.000701682 W
            Gate Leakage = 6.83558e-05 W
            Runtime Dynamic = 0.0250212 W

          Instruction Decoder:
            Area = 1.85799 mm^2
            Peak Dynamic = 1.37404 W
            Subthreshold Leakage = 0.442943 W
            Subthreshold Leakage with power gating = 0.166104 W
            Gate Leakage = 0.0222493 W
            Runtime Dynamic = 0.0849833 W

      Renaming Unit:
        Area = 0.369768 mm^2
[...]
            Subthreshold Leakage with power gating = 0.000701682 W
            Gate Leakage = 6.83558e-05 W
            Runtime Dynamic = 0.0249302 W

          Instruction Decoder:
            Area = 1.85799 mm^2
            Peak Dynamic = 1.37404 W
            Subthreshold Leakage = 0.442943 W
            Subthreshold Leakage with power gating = 0.166104 W
            Gate Leakage = 0.0222493 W
            Runtime Dynamic = 0.0846741 W

      Renaming Unit:
        Area = 0.369768 mm^2
        Peak Dynamic = 4.56169 W
        Subthreshold Leakage = 0.070483 W
        Subthreshold Leakage with power gating = 0.0362779 W
        Gate Leakage = 0.00863632 W
        Runtime Dynamic = 0.0552769 W

          Int Front End RAT:
            Area = 0.114751 mm^2
            Peak Dynamic = 0.86945 W
            Subthreshold Leakage = 0.00611897 W
            Subthreshold Leakage with power gating = 0.00348781 W
            Gate Leakage = 0.00038343 W
            Runtime Dynamic = 0.05033 W

          FP Front End RAT:
            Area = 0.168486 mm^2
            Peak Dynamic = 3.33511 W
            Subthreshold Leakage = 0.0437281 W
            Subthreshold Leakage with power gating = 0.024925 W
            Gate Leakage = 0.00489731 W
            Runtime Dynamic = 0 W

          Free List:
            Area = 0.0414755 mm^2
            Peak Dynamic = 0.0401324 W
            Subthreshold Leakage = 0.000670426 W
            Subthreshold Leakage with power gating = 0.000377987 W
            Gate Leakage = 4.15911e-05 W
            Runtime Dynamic = 0.00494626 W

      Load Store Unit:
        Area = 8.80969 mm^2
        Peak Dynamic = 1.95837 W
        Subthreshold Leakage = 0.591622 W
        Subthreshold Leakage with power gating = 0.283406 W
        Gate Leakage = 0.0351387 W
        Runtime Dynamic = 0.420288 W

          Data Cache:
            Area = 6.84535 mm^2
            Peak Dynamic = 1.86245 W
            Subthreshold Leakage = 0.527675 W
            Subthreshold Leakage with power gating = 0.25085 W
            Gate Leakage = 0.0279261 W
            Runtime Dynamic = 0.300286 W

          LoadQ:
            Area = 0.0836782 mm^2
            Peak Dynamic = 0.0202308 W
            Subthreshold Leakage = 0.00941961 W
            Subthreshold Leakage with power gating = 0.00536918 W
            Gate Leakage = 0.00059896 W
            Runtime Dynamic = 0.0202307 W

          StoreQ:
            Area = 0.322079 mm^2
            Peak Dynamic = 0.0498857 W
            Subthreshold Leakage = 0.0345621 W
            Subthreshold Leakage with power gating = 0.0197004 W
            Gate Leakage = 0.00329971 W
            Runtime Dynamic = 0.0997709 W

      Memory Management Unit:
        Area = 0.434579 mm^2
        Peak Dynamic = 0.287704 W
        Subthreshold Leakage = 0.0769113 W
        Subthreshold Leakage with power gating = 0.0399462 W
        Gate Leakage = 0.00813591 W
        Runtime Dynamic = 0.0301242 W

          Itlb:
            Area = 0.301552 mm^2
            Peak Dynamic = 0.0985975 W
            Subthreshold Leakage = 0.0413758 W
            Subthreshold Leakage with power gating = 0.0235842 W
            Gate Leakage = 0.00393464 W
            Runtime Dynamic = 0.0124191 W

          Dtlb:
            Area = 0.0879726 mm^2
            Peak Dynamic = 0.0177046 W
            Subthreshold Leakage = 0.0155699 W
            Subthreshold Leakage with power gating = 0.00887485 W
            Gate Leakage = 0.00088729 W
            Runtime Dynamic = 0.0177045 W

      Execution Unit:
        Area = 8.2042 mm^2
        Peak Dynamic = 5.04308 W
        Subthreshold Leakage = 1.83518 W
        Subthreshold Leakage with power gating = 0.709678 W
        Gate Leakage = 0.122718 W
        Runtime Dynamic = 1.23903 W

          Register Files:
            Area = 0.570804 mm^2
            Peak Dynamic = 0.0253569 W
            Subthreshold Leakage = 0.0101387 W
            Subthreshold Leakage with power gating = 0.00423643 W
            Gate Leakage = 0.000622708 W
            Runtime Dynamic = 0.0294395 W

              Integer RF:
                Area = 0.362673 mm^2
                Peak Dynamic = 0.0253569 W
                Subthreshold Leakage = 0.00614175 W
                Subthreshold Leakage with power gating = 0.00246675 W
                Gate Leakage = 0.00038992 W
                Runtime Dynamic = 0.0259331 W

              Floating Point RF:
                Area = 0.208131 mm^2
                Peak Dynamic = 0 W
                Subthreshold Leakage = 0.00399698 W
                Subthreshold Leakage with power gating = 0.00176968 W
                Gate Leakage = 0.000232788 W
                Runtime Dynamic = 0.00350642 W

          Instruction Scheduler:
            Area = 2.17927 mm^2
            Peak Dynamic = 4.84781 W
            Subthreshold Leakage = 0.114878 W
            Subthreshold Leakage with power gating = 0.0641291 W
            Gate Leakage = 0.00730101 W
            Runtime Dynamic = 0.367032 W

              Instruction Window:
                Area = 1.00996 mm^2
                Peak Dynamic = 2.07911 W
                Subthreshold Leakage = 0.0800117 W
                Subthreshold Leakage with power gating = 0.0455351 W
                Gate Leakage = 0.00529112 W
                Runtime Dynamic = 0.167502 W

              FP Instruction Window:
                Area = 0.328073 mm^2
                Peak Dynamic = 1.20978 W
                Subthreshold Leakage = 0.017004 W
                Subthreshold Leakage with power gating = 0.00962066 W
                Gate Leakage = 0.00115349 W
                Runtime Dynamic = 0.09673 W

              ROB:
                Area = 0.841232 mm^2
                Peak Dynamic = 1.55892 W
                Subthreshold Leakage = 0.0178624 W
                Subthreshold Leakage with power gating = 0.00897339 W
                Gate Leakage = 0.000856399 W
                Runtime Dynamic = 0.1028 W

          Integer ALUs (Count: 6 ):
            Area = 0.47087 mm^2
            Peak Dynamic = 0.0956144 W
            Subthreshold Leakage = 0.40222 W
            Subthreshold Leakage with power gating = 0.150833 W
            Gate Leakage = 0.0265291 W
            Runtime Dynamic = 0.179249 W

          Floating Point Units (FPUs) (Count: 2 ):
            Area = 4.6585 mm^2
            Peak Dynamic = 0 W
            Subthreshold Leakage = 0.994829 W
            Subthreshold Leakage with power gating = 0.373061 W
            Gate Leakage = 0.0656156 W
            Runtime Dynamic = 0.304033 W

          Complex ALUs (Mul/Div) (Count: 1 ):
            Area = 0.235435 mm^2
            Peak Dynamic = 0 W
            Subthreshold Leakage = 0.20111 W
            Subthreshold Leakage with power gating = 0.0754163 W
            Gate Leakage = 0.0132646 W
            Runtime Dynamic = 0.202689 W

          Results Broadcast Bus:
            Area Overhead = 0.0442632 mm^2
            Peak Dynamic = 0.0612727 W
            Subthreshold Leakage = 0.0920413 W
            Subthreshold Leakage with power gating = 0.0345155 W
            Gate Leakage = 0.00607074 W
            Runtime Dynamic = 0.156591 W

    L2
    Area = 4.53318 mm^2
    Peak Dynamic = 0 W
    Subthreshold Leakage = 0.834142 W
    Subthreshold Leakage with power gating = 0.401066 W
    Gate Leakage = 0.015464 W
    Runtime Dynamic = 4.06911e-06 W

*****************************************************************************************
Core:
      Area = 32.6082 mm^2
      Peak Dynamic = 15.7325 W
      Subthreshold Leakage = 6.21877 W
      Subthreshold Leakage with power gating = 2.58311 W
      Gate Leakage = 0.372997 W
      Runtime Dynamic = 1.94238 W

      Instruction Fetch Unit:
        Area = 5.86007 mm^2
        Peak Dynamic = 3.88196 W
        Subthreshold Leakage = 0.932587 W
        Subthreshold Leakage with power gating = 0.408542 W
        Gate Leakage = 0.0590479 W
        Runtime Dynamic = 0.197995 W

          Instruction Cache:
            Area = 3.14635 mm^2
            Peak Dynamic = 1.58533 W
            Subthreshold Leakage = 0.367022 W
            Subthreshold Leakage with power gating = 0.180386 W
            Gate Leakage = 0.029931 W
            Runtime Dynamic = 0.0755843 W

          Branch Target Buffer:
            Area = 0.64954 mm^2
            Peak Dynamic = 0.177867 W
            Subthreshold Leakage = 0.0811682 W
            Subthreshold Leakage with power gating = 0.0435357 W
            Gate Leakage = 0.00272758 W
            Runtime Dynamic = 0.00956427 W

          Branch Predictor:
            Area = 0.138516 mm^2
            Peak Dynamic = 0.0597838 W
            Subthreshold Leakage = 0.0199703 W
            Subthreshold Leakage with power gating = 0.0103282 W
            Gate Leakage = 0.000757657 W
            Runtime Dynamic = 0.00327189 W

              Global Predictor:
                Area = 0.0435221 mm^2
                Peak Dynamic = 0.0168831 W
                Subthreshold Leakage = 0.00759719 W
                Subthreshold Leakage with power gating = 0.0039236 W
                Gate Leakage = 0.000278362 W
                Runtime Dynamic = 0.00100886 W

              Local Predictor:
              L1_Local Predictor:
                Area = 0.0257064 mm^2
                Peak Dynamic = 0.0142575 W
                Subthreshold Leakage = 0.00384344 W
                Subthreshold Leakage with power gating = 0.00198631 W
                Gate Leakage = 0.000154548 W
                Runtime Dynamic = 0.000881757 W

              L2_Local Predictor:
                Area = 0.0151917 mm^2
                Peak Dynamic = 0.00527447 W
                Subthreshold Leakage = 0.00181347 W
                Subthreshold Leakage with power gating = 0.000957045 W
                Gate Leakage = 8.00196e-05 W
                Runtime Dynamic = 0.000343005 W

              Chooser:
                Area = 0.0435221 mm^2
                Peak Dynamic = 0.0168831 W
                Subthreshold Leakage = 0.00759719 W
                Subthreshold Leakage with power gating = 0.0039236 W
                Gate Leakage = 0.000278362 W
                Runtime Dynamic = 0.00100886 W

              RAS:
                Area = 0.0105732 mm^2
                Peak Dynamic = 0.0117602 W
                Subthreshold Leakage = 0.000932505 W
                Subthreshold Leakage with power gating = 0.000494733 W
                Gate Leakage = 4.63858e-05 W
                Runtime Dynamic = 0.000372411 W

          Instruction Buffer:
            Area = 0.0226323 mm^2
            Peak Dynamic = 0.606827 W
            Subthreshold Leakage = 0.00151885 W
            Subthreshold Leakage with power gating = 0.000701682 W
            Gate Leakage = 6.83558e-05 W
            Runtime Dynamic = 0.0249232 W

          Instruction Decoder:
            Area = 1.85799 mm^2
            Peak Dynamic = 1.37404 W
            Subthreshold Leakage = 0.442943 W
            Subthreshold Leakage with power gating = 0.166104 W
            Gate Leakage = 0.0222493 W
            Runtime Dynamic = 0.0846503 W

      Renaming Unit:
        Area = 0.369768 mm^2
        Peak Dynamic = 4.56169 W
        Subthreshold Leakage = 0.070483 W
        Subthreshold Leakage with power gating = 0.0362779 W
        Gate Leakage = 0.00863632 W
        Runtime Dynamic = 0.0552613 W

          Int Front End RAT:
            Area = 0.114751 mm^2
            Peak Dynamic = 0.86945 W
            Subthreshold Leakage = 0.00611897 W
            Subthreshold Leakage with power gating = 0.00348781 W
            Gate Leakage = 0.00038343 W
            Runtime Dynamic = 0.0503158 W

          FP Front End RAT:
            Area = 0.168486 mm^2
            Peak Dynamic = 3.33511 W
            Subthreshold Leakage = 0.0437281 W
            Subthreshold Leakage with power gating = 0.024925 W
            Gate Leakage = 0.00489731 W
            Runtime Dynamic = 0 W

          Free List:
            Area = 0.0414755 mm^2
            Peak Dynamic = 0.0401324 W
            Subthreshold Leakage = 0.000670426 W
            Subthreshold Leakage with power gating = 0.000377987 W
            Gate Leakage = 4.15911e-05 W
            Runtime Dynamic = 0.00494487 W

      Load Store Unit:
        Area = 8.80969 mm^2
        Peak Dynamic = 1.95813 W
        Subthreshold Leakage = 0.591622 W
        Subthreshold Leakage with power gating = 0.283406 W
        Gate Leakage = 0.0351387 W
        Runtime Dynamic = 0.420151 W

          Data Cache:
            Area = 6.84535 mm^2
            Peak Dynamic = 1.86224 W
            Subthreshold Leakage = 0.527675 W
            Subthreshold Leakage with power gating = 0.25085 W
            Gate Leakage = 0.0279261 W
            Runtime Dynamic = 0.300188 W

          LoadQ:
            Area = 0.0836782 mm^2
            Peak Dynamic = 0.0202241 W
            Subthreshold Leakage = 0.00941961 W
            Subthreshold Leakage with power gating = 0.00536918 W
            Gate Leakage = 0.00059896 W
            Runtime Dynamic = 0.0202241 W

          StoreQ:
            Area = 0.322079 mm^2
            Peak Dynamic = 0.0498692 W
            Subthreshold Leakage = 0.0345621 W
            Subthreshold Leakage with power gating = 0.0197004 W
            Gate Leakage = 0.00329971 W
            Runtime Dynamic = 0.0997384 W

      Memory Management Unit:
        Area = 0.434579 mm^2
        Peak Dynamic = 0.287666 W
        Subthreshold Leakage = 0.0769113 W
        Subthreshold Leakage with power gating = 0.0399462 W
        Gate Leakage = 0.00813591 W
        Runtime Dynamic = 0.0301128 W

          Itlb:
            Area = 0.301552 mm^2
            Peak Dynamic = 0.0985699 W
            Subthreshold Leakage = 0.0413758 W
            Subthreshold Leakage with power gating = 0.0235842 W
            Gate Leakage = 0.00393464 W
            Runtime Dynamic = 0.0124134 W

          Dtlb:
            Area = 0.0879726 mm^2
            Peak Dynamic = 0.0176987 W
            Subthreshold Leakage = 0.0155699 W
            Subthreshold Leakage with power gating = 0.00887485 W
            Gate Leakage = 0.00088729 W
            Runtime Dynamic = 0.0176987 W

      Execution Unit:
        Area = 8.2042 mm^2
        Peak Dynamic = 5.04302 W
        Subthreshold Leakage = 1.83518 W
        Subthreshold Leakage with power gating = 0.709678 W
        Gate Leakage = 0.122718 W
        Runtime Dynamic = 1.23886 W

          Register Files:
            Area = 0.570804 mm^2
            Peak Dynamic = 0.0253495 W
            Subthreshold Leakage = 0.0101387 W
            Subthreshold Leakage with power gating = 0.00423643 W
            Gate Leakage = 0.000622708 W
            Runtime Dynamic = 0.0294312 W

              Integer RF:
                Area = 0.362673 mm^2
                Peak Dynamic = 0.0253495 W
                Subthreshold Leakage = 0.00614175 W
                Subthreshold Leakage with power gating = 0.00246675 W
                Gate Leakage = 0.00038992 W
                Runtime Dynamic = 0.0259257 W

              Floating Point RF:
                Area = 0.208131 mm^2
                Peak Dynamic = 0 W
                Subthreshold Leakage = 0.00399698 W
                Subthreshold Leakage with power gating = 0.00176968 W
                Gate Leakage = 0.000232788 W
                Runtime Dynamic = 0.0035055 W

          Instruction Scheduler:
            Area = 2.17927 mm^2
            Peak Dynamic = 4.84781 W
            Subthreshold Leakage = 0.114878 W
            Subthreshold Leakage with power gating = 0.0641291 W
            Gate Leakage = 0.00730101 W
            Runtime Dynamic = 0.36693 W

              Instruction Window:
                Area = 1.00996 mm^2
                Peak Dynamic = 2.07911 W
                Subthreshold Leakage = 0.0800117 W
                Subthreshold Leakage with power gating = 0.0455351 W
                Gate Leakage = 0.00529112 W
                Runtime Dynamic = 0.167455 W

              FP Instruction Window:
                Area = 0.328073 mm^2
                Peak Dynamic = 1.20978 W
                Subthreshold Leakage = 0.017004 W
                Subthreshold Leakage with power gating = 0.00962066 W
                Gate Leakage = 0.00115349 W
                Runtime Dynamic = 0.0967029 W

              ROB:
                Area = 0.841232 mm^2
                Peak Dynamic = 1.55892 W
                Subthreshold Leakage = 0.0178624 W
                Subthreshold Leakage with power gating = 0.00897339 W
                Gate Leakage = 0.000856399 W
                Runtime Dynamic = 0.102772 W

          Integer ALUs (Count: 6 ):
            Area = 0.47087 mm^2
            Peak Dynamic = 0.0955865 W
            Subthreshold Leakage = 0.40222 W
            Subthreshold Leakage with power gating = 0.150833 W
            Gate Leakage = 0.0265291 W
            Runtime Dynamic = 0.179228 W

          Floating Point Units (FPUs) (Count: 2 ):
            Area = 4.6585 mm^2
            Peak Dynamic = 0 W
            Subthreshold Leakage = 0.994829 W
            Subthreshold Leakage with power gating = 0.373061 W
            Gate Leakage = 0.0656156 W
            Runtime Dynamic = 0.304033 W

          Complex ALUs (Mul/Div) (Count: 1 ):
            Area = 0.235435 mm^2
            Peak Dynamic = 0 W
            Subthreshold Leakage = 0.20111 W
            Subthreshold Leakage with power gating = 0.0754163 W
            Gate Leakage = 0.0132646 W
            Runtime Dynamic = 0.202689 W

          Results Broadcast Bus:
            Area Overhead = 0.0442632 mm^2
            Peak Dynamic = 0.0612548 W
            Subthreshold Leakage = 0.0920413 W
            Subthreshold Leakage with power gating = 0.0345155 W
            Gate Leakage = 0.00607074 W
            Runtime Dynamic = 0.156547 W

    L2
    Area = 4.53318 mm^2
    Peak Dynamic = 0 W
    Subthreshold Leakage = 0.834142 W
    Subthreshold Leakage with power gating = 0.401066 W
    Gate Leakage = 0.015464 W
    Runtime Dynamic = 4.06911e-06 W

*****************************************************************************************
      L3
      Area = 61.9075 mm^2
      Peak Dynamic = 0 W
      Subthreshold Leakage = 6.80085 W
      Subthreshold Leakage with power gating = 3.32364 W
      Gate Leakage = 0.0484137 W
      Runtime Dynamic = 4.0816e-06 W

*****************************************************************************************
      L3
      Area = 61.9075 mm^2
      Peak Dynamic = 0 W
      Subthreshold Leakage = 6.80085 W
      Subthreshold Leakage with power gating = 3.32364 W
      Gate Leakage = 0.0484137 W
      Runtime Dynamic = 4.0816e-06 W

*****************************************************************************************
      L3
      Area = 61.9075 mm^2
      Peak Dynamic = 0 W
      Subthreshold Leakage = 6.80085 W
      Subthreshold Leakage with power gating = 3.32364 W
      Gate Leakage = 0.0484137 W
      Runtime Dynamic = 4.0816e-06 W

*****************************************************************************************
      L3
      Area = 61.9075 mm^2
      Peak Dynamic = 0 W
      Subthreshold Leakage = 6.80085 W
      Subthreshold Leakage with power gating = 3.32364 W
      Gate Leakage = 0.0484137 W
      Runtime Dynamic = 4.0816e-06 W

*****************************************************************************************
BUSES
      Area = 5.0113 mm^2
      Peak Dynamic = 0 W
      Subthreshold Leakage = 0.140192 W
      Subthreshold Leakage with power gating = 0.0525718 W
      Gate Leakage = 0.0134439 W
      Runtime Dynamic = 0 W

      Bus: 
        Area = 5.0113 mm^2
        Peak Dynamic = 0 W
        Subthreshold Leakage = 0.140192 W
        Subthreshold Leakage with power gating = 0.0525718 W
        Gate Leakage = 0.0134439 W
        Runtime Dynamic = 0 W

*****************************************************************************************
